# generated using pymatgen
data_P2W
_symmetry_space_group_name_H-M   'P 1'
_cell_length_a   3.18546580
_cell_length_b   11.17111025
_cell_length_c   4.98374023
_cell_angle_alpha   90.00000000
_cell_angle_beta   90.00000000
_cell_angle_gamma   90.00000000
_symmetry_Int_Tables_number   1
_chemical_formula_structural   P2W
_chemical_formula_sum   'P8 W4'
_cell_volume   177.34734136
_cell_formula_units_Z   4
loop_
 _symmetry_equiv_pos_site_id
 _symmetry_equiv_pos_as_xyz
  1  'x, y, z'
loop_
 _atom_site_type_symbol
 _atom_site_label
 _atom_site_symmetry_multiplicity
 _atom_site_fract_x
 _atom_site_fract_y
 _atom_site_fract_z
 _atom_site_occupancy
  P  P0  1  0.50000000  0.43063927  0.38271291  1
  P  P1  1  0.00000000  0.06936073  0.88271291  1
  P  P2  1  0.00000000  0.20046158  0.19932921  1
  P  P3  1  0.50000000  0.29953842  0.69932921  1
  P  P4  1  0.00000000  0.93063927  0.38271291  1
  P  P5  1  0.50000000  0.56936073  0.88271291  1
  P  P6  1  0.50000000  0.70046158  0.19932921  1
  P  P7  1  0.00000000  0.79953842  0.69932921  1
  W  W8  1  0.50000000  0.09351691  0.50095889  1
  W  W9  1  0.00000000  0.40648309  0.00095889  1
  W  W10  1  0.00000000  0.59351691  0.50095889  1
  W  W11  1  0.50000000  0.90648309  0.00095889  1
