# generated using pymatgen
data_SbTePd
_symmetry_space_group_name_H-M   'P 1'
_cell_length_a   6.60655898
_cell_length_b   6.60655898
_cell_length_c   6.60655898
_cell_angle_alpha   90.00000000
_cell_angle_beta   90.00000000
_cell_angle_gamma   90.00000000
_symmetry_Int_Tables_number   1
_chemical_formula_structural   SbTePd
_chemical_formula_sum   'Sb4 Te4 Pd4'
_cell_volume   288.35397959
_cell_formula_units_Z   4
loop_
 _symmetry_equiv_pos_site_id
 _symmetry_equiv_pos_as_xyz
  1  'x, y, z'
loop_
 _atom_site_type_symbol
 _atom_site_label
 _atom_site_symmetry_multiplicity
 _atom_site_fract_x
 _atom_site_fract_y
 _atom_site_fract_z
 _atom_site_occupancy
  Sb  Sb0  1  0.62650496  0.62650496  0.62650496  1
  Sb  Sb1  1  0.87349504  0.37349504  0.12650496  1
  Sb  Sb2  1  0.12650496  0.87349504  0.37349504  1
  Sb  Sb3  1  0.37349504  0.12650496  0.87349504  1
  Te  Te4  1  0.37496300  0.37496300  0.37496300  1
  Te  Te5  1  0.12503700  0.62503700  0.87496300  1
  Te  Te6  1  0.87496300  0.12503700  0.62503700  1
  Te  Te7  1  0.62503700  0.87496300  0.12503700  1
  Pd  Pd8  1  0.00432565  0.00432565  0.00432565  1
  Pd  Pd9  1  0.49567435  0.99567435  0.50432565  1
  Pd  Pd10  1  0.50432565  0.49567435  0.99567435  1
  Pd  Pd11  1  0.99567435  0.50432565  0.49567435  1
