# generated using pymatgen
data_Al6Tc
_symmetry_space_group_name_H-M   'P 1'
_cell_length_a   6.53606924
_cell_length_b   7.57089646
_cell_length_c   8.97717816
_cell_angle_alpha   90.00000000
_cell_angle_beta   90.00000000
_cell_angle_gamma   90.00000000
_symmetry_Int_Tables_number   1
_chemical_formula_structural   Al6Tc
_chemical_formula_sum   'Al24 Tc4'
_cell_volume   444.22581785
_cell_formula_units_Z   4
loop_
 _symmetry_equiv_pos_site_id
 _symmetry_equiv_pos_as_xyz
  1  'x, y, z'
loop_
 _atom_site_type_symbol
 _atom_site_label
 _atom_site_symmetry_multiplicity
 _atom_site_fract_x
 _atom_site_fract_y
 _atom_site_fract_z
 _atom_site_occupancy
  Al  Al0  1  0.50000000  0.82421934  0.00000000  1
  Al  Al1  1  0.50000000  0.17578066  0.50000000  1
  Al  Al2  1  0.50000000  0.17578066  0.00000000  1
  Al  Al3  1  0.50000000  0.82421934  0.50000000  1
  Al  Al4  1  0.13437207  0.00000000  0.60062250  1
  Al  Al5  1  0.86562793  0.00000000  0.10062250  1
  Al  Al6  1  0.13437207  0.00000000  0.89937750  1
  Al  Al7  1  0.86562793  0.00000000  0.39937750  1
  Al  Al8  1  0.20822100  0.18146493  0.25000000  1
  Al  Al9  1  0.79177900  0.81853507  0.75000000  1
  Al  Al10  1  0.20822100  0.81853507  0.25000000  1
  Al  Al11  1  0.79177900  0.18146493  0.75000000  1
  Al  Al12  1  0.00000000  0.32421934  0.00000000  1
  Al  Al13  1  0.00000000  0.67578066  0.50000000  1
  Al  Al14  1  0.00000000  0.67578066  0.00000000  1
  Al  Al15  1  0.00000000  0.32421934  0.50000000  1
  Al  Al16  1  0.63437207  0.50000000  0.60062250  1
  Al  Al17  1  0.36562793  0.50000000  0.10062250  1
  Al  Al18  1  0.63437207  0.50000000  0.89937750  1
  Al  Al19  1  0.36562793  0.50000000  0.39937750  1
  Al  Al20  1  0.70822100  0.68146493  0.25000000  1
  Al  Al21  1  0.29177900  0.31853507  0.75000000  1
  Al  Al22  1  0.70822100  0.31853507  0.25000000  1
  Al  Al23  1  0.29177900  0.68146493  0.75000000  1
  Tc  Tc24  1  0.54245514  0.00000000  0.25000000  1
  Tc  Tc25  1  0.45754486  0.00000000  0.75000000  1
  Tc  Tc26  1  0.04245514  0.50000000  0.25000000  1
  Tc  Tc27  1  0.95754486  0.50000000  0.75000000  1
