# generated using pymatgen
data_GeS2
_symmetry_space_group_name_H-M   'P 1'
_cell_length_a   6.96384700
_cell_length_b   22.86611800
_cell_length_c   6.96545127
_cell_angle_alpha   90.00000000
_cell_angle_beta   118.82119056
_cell_angle_gamma   90.00000000
_symmetry_Int_Tables_number   1
_chemical_formula_structural   GeS2
_chemical_formula_sum   'Ge12 S24'
_cell_volume   971.75928921
_cell_formula_units_Z   12
loop_
 _symmetry_equiv_pos_site_id
 _symmetry_equiv_pos_as_xyz
  1  'x, y, z'
loop_
 _atom_site_type_symbol
 _atom_site_label
 _atom_site_symmetry_multiplicity
 _atom_site_fract_x
 _atom_site_fract_y
 _atom_site_fract_z
 _atom_site_occupancy
  Ge  Ge0  1  0.99778100  0.01217600  0.00027200  1
  Ge  Ge1  1  0.49778100  0.98782400  0.00027200  1
  Ge  Ge2  1  0.75592200  0.26288300  0.75587000  1
  Ge  Ge3  1  0.25592200  0.73711700  0.75587000  1
  Ge  Ge4  1  0.99893100  0.48780700  0.50681500  1
  Ge  Ge5  1  0.49893100  0.51219300  0.50681500  1
  Ge  Ge6  1  0.75036200  0.23809600  0.25243400  1
  Ge  Ge7  1  0.25036200  0.76190400  0.25243400  1
  Ge  Ge8  1  0.60933900  0.12535300  0.86165500  1
  Ge  Ge9  1  0.10933900  0.87464700  0.86165500  1
  Ge  Ge10  1  0.61220900  0.37527200  0.36751900  1
  Ge  Ge11  1  0.11220900  0.62472800  0.36751900  1
  S  S12  1  0.36777100  0.05101700  0.71628100  1
  S  S13  1  0.86777100  0.94898300  0.71628100  1
  S  S14  1  0.92080700  0.10214300  0.85339600  1
  S  S15  1  0.42080700  0.89785700  0.85339600  1
  S  S16  1  0.46968000  0.20025500  0.62208700  1
  S  S17  1  0.96968000  0.79974500  0.62208700  1
  S  S18  1  0.46808400  0.30179900  0.12377200  1
  S  S19  1  0.96808400  0.69820100  0.12377200  1
  S  S20  1  0.36611200  0.44844800  0.22331300  1
  S  S21  1  0.86611200  0.55155200  0.22331300  1
  S  S22  1  0.85984000  0.99905900  0.23066000  1
  S  S23  1  0.35984000  0.00094100  0.23066000  1
  S  S24  1  0.59773100  0.14886100  0.17041700  1
  S  S25  1  0.09773100  0.85113900  0.17041700  1
  S  S26  1  0.98199800  0.24574000  0.61521500  1
  S  S27  1  0.48199800  0.75426000  0.61521500  1
  S  S28  1  0.98325700  0.25366500  0.11920700  1
  S  S29  1  0.48325700  0.74633500  0.11920700  1
  S  S30  1  0.62650100  0.35449500  0.69021000  1
  S  S31  1  0.12650100  0.64550500  0.69021000  1
  S  S32  1  0.93558400  0.39576900  0.38300100  1
  S  S33  1  0.43558400  0.60423100  0.38300100  1
  S  S34  1  0.36309000  0.49385700  0.73517600  1
  S  S35  1  0.86309000  0.50614300  0.73517600  1
