# generated using pymatgen
data_CoSn3
_symmetry_space_group_name_H-M   'P 1'
_cell_length_a   6.23901932
_cell_length_b   16.97249644
_cell_length_c   6.24619064
_cell_angle_alpha   90.00000000
_cell_angle_beta   90.00000000
_cell_angle_gamma   90.00000000
_symmetry_Int_Tables_number   1
_chemical_formula_structural   CoSn3
_chemical_formula_sum   'Co8 Sn24'
_cell_volume   661.41995275
_cell_formula_units_Z   8
loop_
 _symmetry_equiv_pos_site_id
 _symmetry_equiv_pos_as_xyz
  1  'x, y, z'
loop_
 _atom_site_type_symbol
 _atom_site_label
 _atom_site_symmetry_multiplicity
 _atom_site_fract_x
 _atom_site_fract_y
 _atom_site_fract_z
 _atom_site_occupancy
  Co  Co0  1  0.00000000  0.42016542  0.00000000  1
  Co  Co1  1  0.50000000  0.42016542  0.50000000  1
  Co  Co2  1  0.50000000  0.07983458  0.00000000  1
  Co  Co3  1  0.00000000  0.07983458  0.50000000  1
  Co  Co4  1  0.50000000  0.92016542  0.00000000  1
  Co  Co5  1  0.00000000  0.92016542  0.50000000  1
  Co  Co6  1  0.00000000  0.57983458  0.00000000  1
  Co  Co7  1  0.50000000  0.57983458  0.50000000  1
  Sn  Sn8  1  0.66306556  0.50000000  0.16257766  1
  Sn  Sn9  1  0.16306556  0.50000000  0.33742234  1
  Sn  Sn10  1  0.83693444  0.50000000  0.66257766  1
  Sn  Sn11  1  0.33693444  0.50000000  0.83742234  1
  Sn  Sn12  1  0.31178096  0.33507203  0.19090670  1
  Sn  Sn13  1  0.81178096  0.33507203  0.30909330  1
  Sn  Sn14  1  0.18821904  0.33507203  0.69090670  1
  Sn  Sn15  1  0.68821904  0.33507203  0.80909330  1
  Sn  Sn16  1  0.81178096  0.16492797  0.19090670  1
  Sn  Sn17  1  0.31178096  0.16492797  0.30909330  1
  Sn  Sn18  1  0.68821904  0.16492797  0.69090670  1
  Sn  Sn19  1  0.18821904  0.16492797  0.80909330  1
  Sn  Sn20  1  0.16306556  0.00000000  0.16257766  1
  Sn  Sn21  1  0.66306556  0.00000000  0.33742234  1
  Sn  Sn22  1  0.33693444  0.00000000  0.66257766  1
  Sn  Sn23  1  0.83693444  0.00000000  0.83742234  1
  Sn  Sn24  1  0.81178096  0.83507203  0.19090670  1
  Sn  Sn25  1  0.31178096  0.83507203  0.30909330  1
  Sn  Sn26  1  0.68821904  0.83507203  0.69090670  1
  Sn  Sn27  1  0.18821904  0.83507203  0.80909330  1
  Sn  Sn28  1  0.31178096  0.66492797  0.19090670  1
  Sn  Sn29  1  0.81178096  0.66492797  0.30909330  1
  Sn  Sn30  1  0.18821904  0.66492797  0.69090670  1
  Sn  Sn31  1  0.68821904  0.66492797  0.80909330  1
