# generated using pymatgen
data_SnBi3Te4
_symmetry_space_group_name_H-M   'P 1'
_cell_length_a   49.93101200
_cell_length_b   4.44206400
_cell_length_c   7.62483620
_cell_angle_alpha   90.00000000
_cell_angle_beta   98.47499983
_cell_angle_gamma   90.00000000
_symmetry_Int_Tables_number   1
_chemical_formula_structural   SnBi3Te4
_chemical_formula_sum   'Sn6 Bi18 Te24'
_cell_volume   1672.69683158
_cell_formula_units_Z   6
loop_
 _symmetry_equiv_pos_site_id
 _symmetry_equiv_pos_as_xyz
  1  'x, y, z'
loop_
 _atom_site_type_symbol
 _atom_site_label
 _atom_site_symmetry_multiplicity
 _atom_site_fract_x
 _atom_site_fract_y
 _atom_site_fract_z
 _atom_site_occupancy
  Sn  Sn0  1  0.43764300  0.50000000  0.93972500  1
  Sn  Sn1  1  0.43737500  0.00000000  0.43999600  1
  Sn  Sn2  1  0.06010000  0.50000000  0.56243800  1
  Sn  Sn3  1  0.93764300  0.00000000  0.93972500  1
  Sn  Sn4  1  0.93737500  0.50000000  0.43999600  1
  Sn  Sn5  1  0.56010000  0.00000000  0.56243800  1
  Bi  Bi6  1  0.06023200  0.00000000  0.05979900  1
  Bi  Bi7  1  0.23123200  0.50000000  0.06510000  1
  Bi  Bi8  1  0.23170500  0.00000000  0.56509200  1
  Bi  Bi9  1  0.26605000  0.00000000  0.93557800  1
  Bi  Bi10  1  0.26640000  0.50000000  0.43451000  1
  Bi  Bi11  1  0.35437400  0.50000000  0.19075900  1
  Bi  Bi12  1  0.35444200  0.00000000  0.68946300  1
  Bi  Bi13  1  0.14399900  0.00000000  0.81172900  1
  Bi  Bi14  1  0.14250800  0.50000000  0.30865700  1
  Bi  Bi15  1  0.56023200  0.50000000  0.05979900  1
  Bi  Bi16  1  0.73123200  0.00000000  0.06510000  1
  Bi  Bi17  1  0.73170500  0.50000000  0.56509200  1
  Bi  Bi18  1  0.76605000  0.50000000  0.93557800  1
  Bi  Bi19  1  0.76640000  0.00000000  0.43451000  1
  Bi  Bi20  1  0.85437400  0.00000000  0.19075900  1
  Bi  Bi21  1  0.85444200  0.50000000  0.68946300  1
  Bi  Bi22  1  0.64399900  0.50000000  0.81172900  1
  Bi  Bi23  1  0.64250800  0.00000000  0.30865700  1
  Te  Te24  1  0.10369400  0.00000000  0.43953000  1
  Te  Te25  1  0.10350700  0.50000000  0.93879200  1
  Te  Te26  1  0.39383700  0.50000000  0.56031300  1
  Te  Te27  1  0.39377400  0.00000000  0.06010200  1
  Te  Te28  1  0.47031000  0.00000000  0.80629300  1
  Te  Te29  1  0.46984800  0.50000000  0.30417500  1
  Te  Te30  1  0.02607400  0.50000000  0.19645300  1
  Te  Te31  1  0.02649100  0.00000000  0.69199900  1
  Te  Te32  1  0.31726400  0.00000000  0.31675500  1
  Te  Te33  1  0.31726700  0.50000000  0.81713100  1
  Te  Te34  1  0.18002500  0.00000000  0.18199300  1
  Te  Te35  1  0.17993700  0.50000000  0.68361700  1
  Te  Te36  1  0.60369400  0.50000000  0.43953000  1
  Te  Te37  1  0.60350700  0.00000000  0.93879200  1
  Te  Te38  1  0.89383700  0.00000000  0.56031300  1
  Te  Te39  1  0.89377400  0.50000000  0.06010200  1
  Te  Te40  1  0.97031000  0.50000000  0.80629300  1
  Te  Te41  1  0.96984800  0.00000000  0.30417500  1
  Te  Te42  1  0.52607400  0.00000000  0.19645300  1
  Te  Te43  1  0.52649100  0.50000000  0.69199900  1
  Te  Te44  1  0.81726400  0.50000000  0.31675500  1
  Te  Te45  1  0.81726700  0.00000000  0.81713100  1
  Te  Te46  1  0.68002500  0.50000000  0.18199300  1
  Te  Te47  1  0.67993700  0.00000000  0.68361700  1
