# generated using pymatgen
data_AsPRh4
_symmetry_space_group_name_H-M   'P 1'
_cell_length_a   3.96029747
_cell_length_b   3.96029747
_cell_length_c   19.44283729
_cell_angle_alpha   90.00000000
_cell_angle_beta   90.00000000
_cell_angle_gamma   120.00000000
_symmetry_Int_Tables_number   1
_chemical_formula_structural   AsPRh4
_chemical_formula_sum   'As3 P3 Rh12'
_cell_volume   264.08631059
_cell_formula_units_Z   3
loop_
 _symmetry_equiv_pos_site_id
 _symmetry_equiv_pos_as_xyz
  1  'x, y, z'
loop_
 _atom_site_type_symbol
 _atom_site_label
 _atom_site_symmetry_multiplicity
 _atom_site_fract_x
 _atom_site_fract_y
 _atom_site_fract_z
 _atom_site_occupancy
  As  As0  1  0.33333333  0.66666667  0.16666667  1
  As  As1  1  1.00000000  1.00000000  0.50000000  1
  As  As2  1  0.66666667  0.33333333  0.83333333  1
  P  P3  1  0.00000000  0.00000000  0.00000000  1
  P  P4  1  0.66666667  0.33333333  0.33333333  1
  P  P5  1  0.33333333  0.66666667  0.66666667  1
  Rh  Rh6  1  0.33333333  0.66666667  0.03886391  1
  Rh  Rh7  1  0.66666667  0.33333333  0.21167567  1
  Rh  Rh8  1  0.00000000  0.00000000  0.12165766  1
  Rh  Rh9  1  0.33333333  0.66666667  0.29446943  1
  Rh  Rh10  1  0.00000000  0.00000000  0.37219724  1
  Rh  Rh11  1  0.33333333  0.66666667  0.54500901  1
  Rh  Rh12  1  0.66666667  0.33333333  0.45499099  1
  Rh  Rh13  1  0.00000000  0.00000000  0.62780276  1
  Rh  Rh14  1  0.66666667  0.33333333  0.70553057  1
  Rh  Rh15  1  0.00000000  0.00000000  0.87834234  1
  Rh  Rh16  1  0.33333333  0.66666667  0.78832433  1
  Rh  Rh17  1  0.66666667  0.33333333  0.96113609  1
