# generated using pymatgen
data_WN2
_symmetry_space_group_name_H-M   'P 1'
_cell_length_a   12.68551800
_cell_length_b   3.78476600
_cell_length_c   6.88175337
_cell_angle_alpha   90.00000000
_cell_angle_beta   106.62485850
_cell_angle_gamma   90.00000000
_symmetry_Int_Tables_number   1
_chemical_formula_structural   WN2
_chemical_formula_sum   'W8 N16'
_cell_volume   316.59339235
_cell_formula_units_Z   8
loop_
 _symmetry_equiv_pos_site_id
 _symmetry_equiv_pos_as_xyz
  1  'x, y, z'
loop_
 _atom_site_type_symbol
 _atom_site_label
 _atom_site_symmetry_multiplicity
 _atom_site_fract_x
 _atom_site_fract_y
 _atom_site_fract_z
 _atom_site_occupancy
  W  W0  1  0.09800200  0.00000000  0.71236000  1
  W  W1  1  0.19151500  0.00000000  0.27614100  1
  W  W2  1  0.30848500  0.50000000  0.72385900  1
  W  W3  1  0.40199800  0.50000000  0.28764000  1
  W  W4  1  0.59800200  0.50000000  0.71236000  1
  W  W5  1  0.69151500  0.50000000  0.27614100  1
  W  W6  1  0.80848500  0.00000000  0.72385900  1
  W  W7  1  0.90199800  0.00000000  0.28764000  1
  N  N8  1  0.05602900  0.00000000  0.36061200  1
  N  N9  1  0.13986300  0.50000000  0.70713600  1
  N  N10  1  0.13402500  0.00000000  0.00152100  1
  N  N11  1  0.26298400  0.00000000  0.64643700  1
  N  N12  1  0.23701600  0.50000000  0.35356300  1
  N  N13  1  0.36597500  0.50000000  0.99847900  1
  N  N14  1  0.36013700  0.00000000  0.29286400  1
  N  N15  1  0.44397100  0.50000000  0.63938800  1
  N  N16  1  0.55602900  0.50000000  0.36061200  1
  N  N17  1  0.63986300  0.00000000  0.70713600  1
  N  N18  1  0.63402500  0.50000000  0.00152100  1
  N  N19  1  0.76298400  0.50000000  0.64643700  1
  N  N20  1  0.73701600  0.00000000  0.35356300  1
  N  N21  1  0.86597500  0.00000000  0.99847900  1
  N  N22  1  0.86013700  0.50000000  0.29286400  1
  N  N23  1  0.94397100  0.00000000  0.63938800  1
