# generated using pymatgen
data_Ca5Pt3
_symmetry_space_group_name_H-M   'P 1'
_cell_length_a   11.43277484
_cell_length_b   11.43277484
_cell_length_c   5.95704686
_cell_angle_alpha   90.00000000
_cell_angle_beta   90.00000000
_cell_angle_gamma   90.00000000
_symmetry_Int_Tables_number   1
_chemical_formula_structural   Ca5Pt3
_chemical_formula_sum   'Ca20 Pt12'
_cell_volume   778.63570960
_cell_formula_units_Z   4
loop_
 _symmetry_equiv_pos_site_id
 _symmetry_equiv_pos_as_xyz
  1  'x, y, z'
loop_
 _atom_site_type_symbol
 _atom_site_label
 _atom_site_symmetry_multiplicity
 _atom_site_fract_x
 _atom_site_fract_y
 _atom_site_fract_z
 _atom_site_occupancy
  Ca  Ca0  1  0.21101248  0.08305866  0.00000000  1
  Ca  Ca1  1  0.78898752  0.91694134  0.00000000  1
  Ca  Ca2  1  0.78898752  0.08305866  0.50000000  1
  Ca  Ca3  1  0.21101248  0.91694134  0.50000000  1
  Ca  Ca4  1  0.58305866  0.28898752  0.50000000  1
  Ca  Ca5  1  0.41694134  0.71101248  0.50000000  1
  Ca  Ca6  1  0.58305866  0.71101248  0.00000000  1
  Ca  Ca7  1  0.41694134  0.28898752  0.00000000  1
  Ca  Ca8  1  0.50000000  0.00000000  0.75000000  1
  Ca  Ca9  1  0.50000000  0.00000000  0.25000000  1
  Ca  Ca10  1  0.71101248  0.58305866  0.50000000  1
  Ca  Ca11  1  0.28898752  0.41694134  0.50000000  1
  Ca  Ca12  1  0.28898752  0.58305866  0.00000000  1
  Ca  Ca13  1  0.71101248  0.41694134  0.00000000  1
  Ca  Ca14  1  0.08305866  0.78898752  0.00000000  1
  Ca  Ca15  1  0.91694134  0.21101248  0.00000000  1
  Ca  Ca16  1  0.08305866  0.21101248  0.50000000  1
  Ca  Ca17  1  0.91694134  0.78898752  0.50000000  1
  Ca  Ca18  1  0.00000000  0.50000000  0.25000000  1
  Ca  Ca19  1  0.00000000  0.50000000  0.75000000  1
  Pt  Pt20  1  0.65551445  0.15551445  0.00000000  1
  Pt  Pt21  1  0.34448555  0.84448555  0.00000000  1
  Pt  Pt22  1  0.34448555  0.15551445  0.50000000  1
  Pt  Pt23  1  0.65551445  0.84448555  0.50000000  1
  Pt  Pt24  1  0.00000000  0.00000000  0.75000000  1
  Pt  Pt25  1  0.00000000  0.00000000  0.25000000  1
  Pt  Pt26  1  0.15551445  0.65551445  0.50000000  1
  Pt  Pt27  1  0.84448555  0.34448555  0.50000000  1
  Pt  Pt28  1  0.84448555  0.65551445  0.00000000  1
  Pt  Pt29  1  0.15551445  0.34448555  0.00000000  1
  Pt  Pt30  1  0.50000000  0.50000000  0.25000000  1
  Pt  Pt31  1  0.50000000  0.50000000  0.75000000  1
