# generated using pymatgen
data_Pt2W
_symmetry_space_group_name_H-M   'P 1'
_cell_length_a   2.77273250
_cell_length_b   3.96440598
_cell_length_c   8.30652561
_cell_angle_alpha   90.00000000
_cell_angle_beta   90.00000000
_cell_angle_gamma   90.00000000
_symmetry_Int_Tables_number   1
_chemical_formula_structural   Pt2W
_chemical_formula_sum   'Pt4 W2'
_cell_volume   91.30730068
_cell_formula_units_Z   2
loop_
 _symmetry_equiv_pos_site_id
 _symmetry_equiv_pos_as_xyz
  1  'x, y, z'
loop_
 _atom_site_type_symbol
 _atom_site_label
 _atom_site_symmetry_multiplicity
 _atom_site_fract_x
 _atom_site_fract_y
 _atom_site_fract_z
 _atom_site_occupancy
  Pt  Pt0  1  0.50000000  0.50000000  0.16322469  1
  Pt  Pt1  1  0.00000000  0.00000000  0.33677531  1
  Pt  Pt2  1  0.00000000  0.00000000  0.66322470  1
  Pt  Pt3  1  0.50000000  0.50000000  0.83677530  1
  W  W4  1  0.00000000  0.00000000  0.00000000  1
  W  W5  1  0.50000000  0.50000000  0.50000000  1
