# generated using pymatgen
data_Nb5Se4
_symmetry_space_group_name_H-M   'P 1'
_cell_length_a   9.98255722
_cell_length_b   9.98255722
_cell_length_c   3.46585525
_cell_angle_alpha   90.00000000
_cell_angle_beta   90.00000000
_cell_angle_gamma   90.00000000
_symmetry_Int_Tables_number   1
_chemical_formula_structural   Nb5Se4
_chemical_formula_sum   'Nb10 Se8'
_cell_volume   345.37749710
_cell_formula_units_Z   2
loop_
 _symmetry_equiv_pos_site_id
 _symmetry_equiv_pos_as_xyz
  1  'x, y, z'
loop_
 _atom_site_type_symbol
 _atom_site_label
 _atom_site_symmetry_multiplicity
 _atom_site_fract_x
 _atom_site_fract_y
 _atom_site_fract_z
 _atom_site_occupancy
  Nb  Nb0  1  0.19505185  0.12643991  0.50000000  1
  Nb  Nb1  1  0.37356009  0.69505185  0.00000000  1
  Nb  Nb2  1  0.62643991  0.30494815  0.00000000  1
  Nb  Nb3  1  0.80494815  0.87356009  0.50000000  1
  Nb  Nb4  1  0.00000000  0.00000000  0.00000000  1
  Nb  Nb5  1  0.69505185  0.62643991  0.00000000  1
  Nb  Nb6  1  0.87356009  0.19505185  0.50000000  1
  Nb  Nb7  1  0.12643991  0.80494815  0.50000000  1
  Nb  Nb8  1  0.30494815  0.37356009  0.00000000  1
  Nb  Nb9  1  0.50000000  0.50000000  0.50000000  1
  Se  Se10  1  0.44105263  0.21897993  0.50000000  1
  Se  Se11  1  0.28102007  0.94105263  0.00000000  1
  Se  Se12  1  0.71897993  0.05894737  0.00000000  1
  Se  Se13  1  0.55894737  0.78102007  0.50000000  1
  Se  Se14  1  0.94105263  0.71897993  0.00000000  1
  Se  Se15  1  0.78102007  0.44105263  0.50000000  1
  Se  Se16  1  0.21897993  0.55894737  0.50000000  1
  Se  Se17  1  0.05894737  0.28102007  0.00000000  1
