# generated using pymatgen
data_Y5Ru2
_symmetry_space_group_name_H-M   'P 1'
_cell_length_a   15.83502829
_cell_length_b   6.35856600
_cell_length_c   7.31397399
_cell_angle_alpha   90.00000000
_cell_angle_beta   97.10409810
_cell_angle_gamma   90.00000000
_symmetry_Int_Tables_number   1
_chemical_formula_structural   Y5Ru2
_chemical_formula_sum   'Y20 Ru8'
_cell_volume   730.77644077
_cell_formula_units_Z   4
loop_
 _symmetry_equiv_pos_site_id
 _symmetry_equiv_pos_as_xyz
  1  'x, y, z'
loop_
 _atom_site_type_symbol
 _atom_site_label
 _atom_site_symmetry_multiplicity
 _atom_site_fract_x
 _atom_site_fract_y
 _atom_site_fract_z
 _atom_site_occupancy
  Y  Y0  1  0.90646250  0.11497950  0.08462600  1
  Y  Y1  1  0.59353750  0.61497950  0.41537400  1
  Y  Y2  1  0.59353750  0.38502050  0.91537400  1
  Y  Y3  1  0.90646250  0.88502050  0.58462600  1
  Y  Y4  1  0.78257850  0.57633950  0.18515900  1
  Y  Y5  1  0.71742150  0.07633950  0.31484100  1
  Y  Y6  1  0.71742150  0.92366050  0.81484100  1
  Y  Y7  1  0.78257850  0.42366050  0.68515900  1
  Y  Y8  1  0.00000000  0.57966100  0.25000000  1
  Y  Y9  1  0.00000000  0.42033900  0.75000000  1
  Y  Y10  1  0.40646250  0.61497950  0.08462600  1
  Y  Y11  1  0.09353750  0.11497950  0.41537400  1
  Y  Y12  1  0.09353750  0.88502050  0.91537400  1
  Y  Y13  1  0.40646250  0.38502050  0.58462600  1
  Y  Y14  1  0.28257850  0.07633950  0.18515900  1
  Y  Y15  1  0.21742150  0.57633950  0.31484100  1
  Y  Y16  1  0.21742150  0.42366050  0.81484100  1
  Y  Y17  1  0.28257850  0.92366050  0.68515900  1
  Y  Y18  1  0.50000000  0.07966100  0.25000000  1
  Y  Y19  1  0.50000000  0.92033900  0.75000000  1
  Ru  Ru20  1  0.89009400  0.28717200  0.42406200  1
  Ru  Ru21  1  0.60990600  0.78717200  0.07593800  1
  Ru  Ru22  1  0.60990600  0.21282800  0.57593800  1
  Ru  Ru23  1  0.89009400  0.71282800  0.92406200  1
  Ru  Ru24  1  0.39009400  0.78717200  0.42406200  1
  Ru  Ru25  1  0.10990600  0.28717200  0.07593800  1
  Ru  Ru26  1  0.10990600  0.71282800  0.57593800  1
  Ru  Ru27  1  0.39009400  0.21282800  0.92406200  1
