# generated using pymatgen
data_BiSb
_symmetry_space_group_name_H-M   'P 1'
_cell_length_a   4.45259128
_cell_length_b   4.45259128
_cell_length_c   11.92544871
_cell_angle_alpha   90.00000000
_cell_angle_beta   90.00000000
_cell_angle_gamma   120.00000000
_symmetry_Int_Tables_number   1
_chemical_formula_structural   BiSb
_chemical_formula_sum   'Bi3 Sb3'
_cell_volume   204.75335313
_cell_formula_units_Z   3
loop_
 _symmetry_equiv_pos_site_id
 _symmetry_equiv_pos_as_xyz
  1  'x, y, z'
loop_
 _atom_site_type_symbol
 _atom_site_label
 _atom_site_symmetry_multiplicity
 _atom_site_fract_x
 _atom_site_fract_y
 _atom_site_fract_z
 _atom_site_occupancy
  Bi  Bi0  1  0.33333333  0.66666667  0.89863416  1
  Bi  Bi1  1  0.00000000  0.00000000  0.23196749  1
  Bi  Bi2  1  0.66666667  0.33333333  0.56530082  1
  Sb  Sb3  1  0.00000000  0.00000000  0.76803116  1
  Sb  Sb4  1  0.66666667  0.33333333  0.10136450  1
  Sb  Sb5  1  0.33333333  0.66666667  0.43469783  1
