# generated using pymatgen
data_As7Rh12
_symmetry_space_group_name_H-M   'P 1'
_cell_length_a   9.40699109
_cell_length_b   9.40699109
_cell_length_c   3.72707900
_cell_angle_alpha   90.00000000
_cell_angle_beta   90.00000000
_cell_angle_gamma   120.00000000
_symmetry_Int_Tables_number   1
_chemical_formula_structural   As7Rh12
_chemical_formula_sum   'As7 Rh12'
_cell_volume   285.62794531
_cell_formula_units_Z   1
loop_
 _symmetry_equiv_pos_site_id
 _symmetry_equiv_pos_as_xyz
  1  'x, y, z'
loop_
 _atom_site_type_symbol
 _atom_site_label
 _atom_site_symmetry_multiplicity
 _atom_site_fract_x
 _atom_site_fract_y
 _atom_site_fract_z
 _atom_site_occupancy
  As  As0  1  0.00000000  0.00000000  0.58766400  1
  As  As1  1  0.28651200  0.84160300  0.74987500  1
  As  As2  1  0.15839700  0.44490900  0.74987500  1
  As  As3  1  0.55509100  0.71348800  0.74987500  1
  As  As4  1  0.71520800  0.16131200  0.25323800  1
  As  As5  1  0.83868800  0.55389600  0.25323800  1
  As  As6  1  0.44610400  0.28479200  0.25323800  1
  Rh  Rh7  1  0.99018700  0.74853800  0.75549100  1
  Rh  Rh8  1  0.25146200  0.24164900  0.75549100  1
  Rh  Rh9  1  0.75835100  0.00981300  0.75549100  1
  Rh  Rh10  1  0.00757100  0.23557500  0.25452600  1
  Rh  Rh11  1  0.76442500  0.77199600  0.25452600  1
  Rh  Rh12  1  0.22800400  0.99242900  0.25452600  1
  Rh  Rh13  1  0.51549700  0.13403900  0.75429700  1
  Rh  Rh14  1  0.86596100  0.38145800  0.75429700  1
  Rh  Rh15  1  0.61854200  0.48450300  0.75429700  1
  Rh  Rh16  1  0.48318500  0.86251500  0.24768600  1
  Rh  Rh17  1  0.13748500  0.62067000  0.24768600  1
  Rh  Rh18  1  0.37933000  0.51681500  0.24768600  1
