# generated using pymatgen
data_NbSi2
_symmetry_space_group_name_H-M   'P 1'
_cell_length_a   4.80586285
_cell_length_b   4.80586285
_cell_length_c   6.58815616
_cell_angle_alpha   90.00000000
_cell_angle_beta   90.00000000
_cell_angle_gamma   120.00000000
_symmetry_Int_Tables_number   1
_chemical_formula_structural   NbSi2
_chemical_formula_sum   'Nb3 Si6'
_cell_volume   131.77628584
_cell_formula_units_Z   3
loop_
 _symmetry_equiv_pos_site_id
 _symmetry_equiv_pos_as_xyz
  1  'x, y, z'
loop_
 _atom_site_type_symbol
 _atom_site_label
 _atom_site_symmetry_multiplicity
 _atom_site_fract_x
 _atom_site_fract_y
 _atom_site_fract_z
 _atom_site_occupancy
  Nb  Nb0  1  0.50000000  0.50000000  0.66666667  1
  Nb  Nb1  1  0.50000000  0.00000000  0.00000000  1
  Nb  Nb2  1  0.00000000  0.50000000  0.33333333  1
  Si  Si3  1  0.68383564  0.84191782  0.33333333  1
  Si  Si4  1  0.84191782  0.68383564  0.00000000  1
  Si  Si5  1  0.84191782  0.15808218  0.66666667  1
  Si  Si6  1  0.31616436  0.15808218  0.33333333  1
  Si  Si7  1  0.15808218  0.31616436  0.00000000  1
  Si  Si8  1  0.15808218  0.84191782  0.66666667  1
