# generated using pymatgen
data_Ti(NbSe2)2
_symmetry_space_group_name_H-M   'P 1'
_cell_length_a   13.97295000
_cell_length_b   3.50607400
_cell_length_c   6.39055139
_cell_angle_alpha   90.00000000
_cell_angle_beta   115.25830273
_cell_angle_gamma   90.00000000
_symmetry_Int_Tables_number   1
_chemical_formula_structural   Ti(NbSe2)2
_chemical_formula_sum   'Ti2 Nb4 Se8'
_cell_volume   283.14236911
_cell_formula_units_Z   2
loop_
 _symmetry_equiv_pos_site_id
 _symmetry_equiv_pos_as_xyz
  1  'x, y, z'
loop_
 _atom_site_type_symbol
 _atom_site_label
 _atom_site_symmetry_multiplicity
 _atom_site_fract_x
 _atom_site_fract_y
 _atom_site_fract_z
 _atom_site_occupancy
  Ti  Ti0  1  0.00000000  0.00000000  0.00000000  1
  Ti  Ti1  1  0.50000000  0.50000000  0.00000000  1
  Nb  Nb2  1  0.24338900  0.50000000  0.67700100  1
  Nb  Nb3  1  0.25661100  0.00000000  0.32299900  1
  Nb  Nb4  1  0.74338900  0.00000000  0.67700100  1
  Nb  Nb5  1  0.75661100  0.50000000  0.32299900  1
  Se  Se6  1  0.10151000  0.00000000  0.44550400  1
  Se  Se7  1  0.39849000  0.50000000  0.55449600  1
  Se  Se8  1  0.36298200  0.00000000  0.02514400  1
  Se  Se9  1  0.13701800  0.50000000  0.97485600  1
  Se  Se10  1  0.60151000  0.50000000  0.44550400  1
  Se  Se11  1  0.89849000  0.00000000  0.55449600  1
  Se  Se12  1  0.86298200  0.50000000  0.02514400  1
  Se  Se13  1  0.63701800  0.00000000  0.97485600  1
