# generated using pymatgen
data_Sr(ZnN)2
_symmetry_space_group_name_H-M   'P 1'
_cell_length_a   6.40117088
_cell_length_b   10.40602066
_cell_length_c   6.32441525
_cell_angle_alpha   90.00000000
_cell_angle_beta   90.02097716
_cell_angle_gamma   90.00000000
_symmetry_Int_Tables_number   1
_chemical_formula_structural   Sr(ZnN)2
_chemical_formula_sum   'Sr6 Zn12 N12'
_cell_volume   421.27380298
_cell_formula_units_Z   6
loop_
 _symmetry_equiv_pos_site_id
 _symmetry_equiv_pos_as_xyz
  1  'x, y, z'
loop_
 _atom_site_type_symbol
 _atom_site_label
 _atom_site_symmetry_multiplicity
 _atom_site_fract_x
 _atom_site_fract_y
 _atom_site_fract_z
 _atom_site_occupancy
  Sr  Sr0  1  0.00000000  0.32467598  0.50000000  1
  Sr  Sr1  1  0.00000000  0.67532402  0.50000000  1
  Sr  Sr2  1  0.00000000  0.50000000  0.00000000  1
  Sr  Sr3  1  0.50000000  0.82467598  0.50000000  1
  Sr  Sr4  1  0.50000000  0.17532402  0.50000000  1
  Sr  Sr5  1  0.50000000  0.00000000  0.00000000  1
  Zn  Zn6  1  0.14253904  0.83757925  0.86208222  1
  Zn  Zn7  1  0.14253904  0.16242075  0.86208222  1
  Zn  Zn8  1  0.85746096  0.16242075  0.13791778  1
  Zn  Zn9  1  0.85746096  0.83757925  0.13791778  1
  Zn  Zn10  1  0.36864869  0.50000000  0.64927096  1
  Zn  Zn11  1  0.63135131  0.50000000  0.35072904  1
  Zn  Zn12  1  0.64253904  0.33757925  0.86208222  1
  Zn  Zn13  1  0.64253904  0.66242075  0.86208222  1
  Zn  Zn14  1  0.35746096  0.66242075  0.13791778  1
  Zn  Zn15  1  0.35746096  0.33757925  0.13791778  1
  Zn  Zn16  1  0.86864869  0.00000000  0.64927096  1
  Zn  Zn17  1  0.13135131  0.00000000  0.35072904  1
  N  N18  1  0.30524024  0.66739448  0.80305239  1
  N  N19  1  0.30524024  0.33260552  0.80305239  1
  N  N20  1  0.69475976  0.33260552  0.19694761  1
  N  N21  1  0.69475976  0.66739448  0.19694761  1
  N  N22  1  0.73863644  0.50000000  0.67827849  1
  N  N23  1  0.26136356  0.50000000  0.32172151  1
  N  N24  1  0.80524024  0.16739448  0.80305239  1
  N  N25  1  0.80524024  0.83260552  0.80305239  1
  N  N26  1  0.19475976  0.83260552  0.19694761  1
  N  N27  1  0.19475976  0.16739448  0.19694761  1
  N  N28  1  0.23863644  0.00000000  0.67827849  1
  N  N29  1  0.76136356  0.00000000  0.32172151  1
