# generated using pymatgen
data_Te8Pd5Se2
_symmetry_space_group_name_H-M   'P 1'
_cell_length_a   35.24040200
_cell_length_b   4.06432200
_cell_length_c   5.12553131
_cell_angle_alpha   90.00000000
_cell_angle_beta   90.08245268
_cell_angle_gamma   90.00000000
_symmetry_Int_Tables_number   1
_chemical_formula_structural   Te8Pd5Se2
_chemical_formula_sum   'Te16 Pd10 Se4'
_cell_volume   734.12058644
_cell_formula_units_Z   2
loop_
 _symmetry_equiv_pos_site_id
 _symmetry_equiv_pos_as_xyz
  1  'x, y, z'
loop_
 _atom_site_type_symbol
 _atom_site_label
 _atom_site_symmetry_multiplicity
 _atom_site_fract_x
 _atom_site_fract_y
 _atom_site_fract_z
 _atom_site_occupancy
  Te  Te0  1  0.82913500  0.50000000  0.72720800  1
  Te  Te1  1  0.72771200  0.00000000  0.73202200  1
  Te  Te2  1  0.62579700  0.50000000  0.73026200  1
  Te  Te3  1  0.96245200  0.50000000  0.26897200  1
  Te  Te4  1  0.86311900  0.00000000  0.25840700  1
  Te  Te5  1  0.76118000  0.50000000  0.26624300  1
  Te  Te6  1  0.65922300  0.00000000  0.26460800  1
  Te  Te7  1  0.55930300  0.50000000  0.27255200  1
  Te  Te8  1  0.32913500  0.00000000  0.72720800  1
  Te  Te9  1  0.22771200  0.50000000  0.73202200  1
  Te  Te10  1  0.12579700  0.00000000  0.73026200  1
  Te  Te11  1  0.46245200  0.00000000  0.26897200  1
  Te  Te12  1  0.36311900  0.50000000  0.25840700  1
  Te  Te13  1  0.26118000  0.00000000  0.26624300  1
  Te  Te14  1  0.15922300  0.50000000  0.26460800  1
  Te  Te15  1  0.05930300  0.00000000  0.27255200  1
  Pd  Pd16  1  0.99395000  0.00000000  0.99290700  1
  Pd  Pd17  1  0.89687900  0.50000000  0.99162200  1
  Pd  Pd18  1  0.79527600  0.00000000  0.99826500  1
  Pd  Pd19  1  0.69358300  0.50000000  0.99880000  1
  Pd  Pd20  1  0.59166100  0.00000000  0.99900100  1
  Pd  Pd21  1  0.49395000  0.50000000  0.99290700  1
  Pd  Pd22  1  0.39687900  0.00000000  0.99162200  1
  Pd  Pd23  1  0.29527600  0.50000000  0.99826500  1
  Pd  Pd24  1  0.19358300  0.00000000  0.99880000  1
  Pd  Pd25  1  0.09166100  0.50000000  0.99900100  1
  Se  Se26  1  0.92881100  0.00000000  0.74848800  1
  Se  Se27  1  0.52619700  0.00000000  0.75064300  1
  Se  Se28  1  0.42881100  0.50000000  0.74848800  1
  Se  Se29  1  0.02619700  0.50000000  0.75064300  1
