# generated using pymatgen
data_NbSn2
_symmetry_space_group_name_H-M   'P 1'
_cell_length_a   5.69847959
_cell_length_b   9.93045475
_cell_length_c   19.21320855
_cell_angle_alpha   90.00000000
_cell_angle_beta   90.00000000
_cell_angle_gamma   90.00000000
_symmetry_Int_Tables_number   1
_chemical_formula_structural   NbSn2
_chemical_formula_sum   'Nb16 Sn32'
_cell_volume   1087.24653155
_cell_formula_units_Z   16
loop_
 _symmetry_equiv_pos_site_id
 _symmetry_equiv_pos_as_xyz
  1  'x, y, z'
loop_
 _atom_site_type_symbol
 _atom_site_label
 _atom_site_symmetry_multiplicity
 _atom_site_fract_x
 _atom_site_fract_y
 _atom_site_fract_z
 _atom_site_occupancy
  Nb  Nb0  1  0.25000000  0.75000000  0.62309410  1
  Nb  Nb1  1  0.75000000  0.75000000  0.37690590  1
  Nb  Nb2  1  0.00000000  0.00000000  0.12690590  1
  Nb  Nb3  1  0.50000000  0.00000000  0.37309410  1
  Nb  Nb4  1  0.25000000  0.25000000  0.12309410  1
  Nb  Nb5  1  0.75000000  0.25000000  0.87690590  1
  Nb  Nb6  1  0.00000000  0.50000000  0.62690590  1
  Nb  Nb7  1  0.50000000  0.50000000  0.87309410  1
  Nb  Nb8  1  0.75000000  0.75000000  0.12309410  1
  Nb  Nb9  1  0.25000000  0.75000000  0.87690590  1
  Nb  Nb10  1  0.50000000  0.00000000  0.62690590  1
  Nb  Nb11  1  0.00000000  0.00000000  0.87309410  1
  Nb  Nb12  1  0.75000000  0.25000000  0.62309410  1
  Nb  Nb13  1  0.25000000  0.25000000  0.37690590  1
  Nb  Nb14  1  0.50000000  0.50000000  0.12690590  1
  Nb  Nb15  1  0.00000000  0.50000000  0.37309410  1
  Sn  Sn16  1  0.25000000  0.08183338  0.25000000  1
  Sn  Sn17  1  0.75000000  0.91816662  0.25000000  1
  Sn  Sn18  1  0.00000000  0.66816662  0.50000000  1
  Sn  Sn19  1  0.50000000  0.83183338  0.50000000  1
  Sn  Sn20  1  0.25000000  0.75000000  0.33292539  1
  Sn  Sn21  1  0.25000000  0.75000000  0.16707461  1
  Sn  Sn22  1  0.00000000  0.00000000  0.41707461  1
  Sn  Sn23  1  0.00000000  0.00000000  0.58292539  1
  Sn  Sn24  1  0.25000000  0.58183338  0.75000000  1
  Sn  Sn25  1  0.75000000  0.41816662  0.75000000  1
  Sn  Sn26  1  0.00000000  0.16816662  0.00000000  1
  Sn  Sn27  1  0.50000000  0.33183338  0.00000000  1
  Sn  Sn28  1  0.25000000  0.25000000  0.83292539  1
  Sn  Sn29  1  0.25000000  0.25000000  0.66707461  1
  Sn  Sn30  1  0.00000000  0.50000000  0.91707461  1
  Sn  Sn31  1  0.00000000  0.50000000  0.08292539  1
  Sn  Sn32  1  0.75000000  0.08183338  0.75000000  1
  Sn  Sn33  1  0.25000000  0.91816662  0.75000000  1
  Sn  Sn34  1  0.50000000  0.66816662  0.00000000  1
  Sn  Sn35  1  0.00000000  0.83183338  0.00000000  1
  Sn  Sn36  1  0.75000000  0.75000000  0.83292539  1
  Sn  Sn37  1  0.75000000  0.75000000  0.66707461  1
  Sn  Sn38  1  0.50000000  0.00000000  0.91707461  1
  Sn  Sn39  1  0.50000000  0.00000000  0.08292539  1
  Sn  Sn40  1  0.75000000  0.58183338  0.25000000  1
  Sn  Sn41  1  0.25000000  0.41816662  0.25000000  1
  Sn  Sn42  1  0.50000000  0.16816662  0.50000000  1
  Sn  Sn43  1  0.00000000  0.33183338  0.50000000  1
  Sn  Sn44  1  0.75000000  0.25000000  0.33292539  1
  Sn  Sn45  1  0.75000000  0.25000000  0.16707461  1
  Sn  Sn46  1  0.50000000  0.50000000  0.41707461  1
  Sn  Sn47  1  0.50000000  0.50000000  0.58292539  1
