# generated using pymatgen
data_Ge3Mo5
_symmetry_space_group_name_H-M   'P 1'
_cell_length_a   9.84847871
_cell_length_b   9.84847871
_cell_length_c   4.96365443
_cell_angle_alpha   90.00000000
_cell_angle_beta   90.00000000
_cell_angle_gamma   90.00000000
_symmetry_Int_Tables_number   1
_chemical_formula_structural   Ge3Mo5
_chemical_formula_sum   'Ge12 Mo20'
_cell_volume   481.43741599
_cell_formula_units_Z   4
loop_
 _symmetry_equiv_pos_site_id
 _symmetry_equiv_pos_as_xyz
  1  'x, y, z'
loop_
 _atom_site_type_symbol
 _atom_site_label
 _atom_site_symmetry_multiplicity
 _atom_site_fract_x
 _atom_site_fract_y
 _atom_site_fract_z
 _atom_site_occupancy
  Ge  Ge0  1  0.00000000  0.00000000  0.25000000  1
  Ge  Ge1  1  0.00000000  0.00000000  0.75000000  1
  Ge  Ge2  1  0.66799113  0.83200887  0.00000000  1
  Ge  Ge3  1  0.66799113  0.16799113  0.50000000  1
  Ge  Ge4  1  0.33200887  0.83200887  0.50000000  1
  Ge  Ge5  1  0.33200887  0.16799113  0.00000000  1
  Ge  Ge6  1  0.50000000  0.50000000  0.75000000  1
  Ge  Ge7  1  0.50000000  0.50000000  0.25000000  1
  Ge  Ge8  1  0.16799113  0.33200887  0.50000000  1
  Ge  Ge9  1  0.16799113  0.66799113  0.00000000  1
  Ge  Ge10  1  0.83200887  0.33200887  0.00000000  1
  Ge  Ge11  1  0.83200887  0.66799113  0.50000000  1
  Mo  Mo12  1  0.77023541  0.92272323  0.50000000  1
  Mo  Mo13  1  0.22976459  0.07727677  0.50000000  1
  Mo  Mo14  1  0.50000000  0.00000000  0.75000000  1
  Mo  Mo15  1  0.50000000  0.00000000  0.25000000  1
  Mo  Mo16  1  0.42272323  0.72976459  0.00000000  1
  Mo  Mo17  1  0.57727677  0.27023541  0.00000000  1
  Mo  Mo18  1  0.22976459  0.92272323  0.00000000  1
  Mo  Mo19  1  0.57727677  0.72976459  0.50000000  1
  Mo  Mo20  1  0.42272323  0.27023541  0.50000000  1
  Mo  Mo21  1  0.77023541  0.07727677  0.00000000  1
  Mo  Mo22  1  0.27023541  0.42272323  0.00000000  1
  Mo  Mo23  1  0.72976459  0.57727677  0.00000000  1
  Mo  Mo24  1  0.00000000  0.50000000  0.25000000  1
  Mo  Mo25  1  0.00000000  0.50000000  0.75000000  1
  Mo  Mo26  1  0.92272323  0.22976459  0.50000000  1
  Mo  Mo27  1  0.07727677  0.77023541  0.50000000  1
  Mo  Mo28  1  0.72976459  0.42272323  0.50000000  1
  Mo  Mo29  1  0.07727677  0.22976459  0.00000000  1
  Mo  Mo30  1  0.92272323  0.77023541  0.00000000  1
  Mo  Mo31  1  0.27023541  0.57727677  0.50000000  1
