# generated using pymatgen
data_MoPd4
_symmetry_space_group_name_H-M   'P 1'
_cell_length_a   2.79585628
_cell_length_b   2.79585628
_cell_length_c   34.26390475
_cell_angle_alpha   90.00000000
_cell_angle_beta   90.00000000
_cell_angle_gamma   120.00000000
_symmetry_Int_Tables_number   1
_chemical_formula_structural   MoPd4
_chemical_formula_sum   'Mo3 Pd12'
_cell_volume   231.95149196
_cell_formula_units_Z   3
loop_
 _symmetry_equiv_pos_site_id
 _symmetry_equiv_pos_as_xyz
  1  'x, y, z'
loop_
 _atom_site_type_symbol
 _atom_site_label
 _atom_site_symmetry_multiplicity
 _atom_site_fract_x
 _atom_site_fract_y
 _atom_site_fract_z
 _atom_site_occupancy
  Mo  Mo0  1  0.00000000  0.00000000  0.00000000  1
  Mo  Mo1  1  0.66666667  0.33333333  0.33333333  1
  Mo  Mo2  1  0.33333333  0.66666667  0.66666667  1
  Pd  Pd3  1  0.33333333  0.66666667  0.06488767  1
  Pd  Pd4  1  0.66666667  0.33333333  0.13293233  1
  Pd  Pd5  1  0.00000000  0.00000000  0.20040100  1
  Pd  Pd6  1  0.33333333  0.66666667  0.26844567  1
  Pd  Pd7  1  0.00000000  0.00000000  0.39822100  1
  Pd  Pd8  1  0.33333333  0.66666667  0.46626567  1
  Pd  Pd9  1  0.66666667  0.33333333  0.53373433  1
  Pd  Pd10  1  0.00000000  0.00000000  0.60177900  1
  Pd  Pd11  1  0.66666667  0.33333333  0.73155433  1
  Pd  Pd12  1  0.00000000  0.00000000  0.79959900  1
  Pd  Pd13  1  0.33333333  0.66666667  0.86706767  1
  Pd  Pd14  1  0.66666667  0.33333333  0.93511233  1
