# generated using pymatgen
data_ScZnPt
_symmetry_space_group_name_H-M   'P 1'
_cell_length_a   4.23230460
_cell_length_b   9.28632246
_cell_length_c   5.24095340
_cell_angle_alpha   90.00000000
_cell_angle_beta   90.00000000
_cell_angle_gamma   90.00000000
_symmetry_Int_Tables_number   1
_chemical_formula_structural   ScZnPt
_chemical_formula_sum   'Sc4 Zn4 Pt4'
_cell_volume   205.98280823
_cell_formula_units_Z   4
loop_
 _symmetry_equiv_pos_site_id
 _symmetry_equiv_pos_as_xyz
  1  'x, y, z'
loop_
 _atom_site_type_symbol
 _atom_site_label
 _atom_site_symmetry_multiplicity
 _atom_site_fract_x
 _atom_site_fract_y
 _atom_site_fract_z
 _atom_site_occupancy
  Sc  Sc0  1  0.00000000  0.29006944  0.75000000  1
  Sc  Sc1  1  0.50000000  0.20993056  0.25000000  1
  Sc  Sc2  1  0.50000000  0.79006944  0.75000000  1
  Sc  Sc3  1  0.00000000  0.70993056  0.25000000  1
  Zn  Zn4  1  0.00000000  0.00000000  0.00000000  1
  Zn  Zn5  1  0.00000000  0.00000000  0.50000000  1
  Zn  Zn6  1  0.50000000  0.50000000  0.00000000  1
  Zn  Zn7  1  0.50000000  0.50000000  0.50000000  1
  Pt  Pt8  1  0.50000000  0.09875174  0.75000000  1
  Pt  Pt9  1  0.00000000  0.40124826  0.25000000  1
  Pt  Pt10  1  0.00000000  0.59875174  0.75000000  1
  Pt  Pt11  1  0.50000000  0.90124826  0.25000000  1
