# generated using pymatgen
data_Tc3P
_symmetry_space_group_name_H-M   'P 1'
_cell_length_a   9.48210009
_cell_length_b   9.48210009
_cell_length_c   4.83211352
_cell_angle_alpha   90.00000000
_cell_angle_beta   90.00000000
_cell_angle_gamma   90.00000000
_symmetry_Int_Tables_number   1
_chemical_formula_structural   Tc3P
_chemical_formula_sum   'Tc24 P8'
_cell_volume   434.45639990
_cell_formula_units_Z   8
loop_
 _symmetry_equiv_pos_site_id
 _symmetry_equiv_pos_as_xyz
  1  'x, y, z'
loop_
 _atom_site_type_symbol
 _atom_site_label
 _atom_site_symmetry_multiplicity
 _atom_site_fract_x
 _atom_site_fract_y
 _atom_site_fract_z
 _atom_site_occupancy
  Tc  Tc0  1  0.34858086  0.00231163  0.50445003  1
  Tc  Tc1  1  0.50231163  0.15141914  0.99554997  1
  Tc  Tc2  1  0.49768837  0.84858086  0.99554997  1
  Tc  Tc3  1  0.65141914  0.99768837  0.50445003  1
  Tc  Tc4  1  0.70163770  0.70660908  0.29581206  1
  Tc  Tc5  1  0.20660908  0.79836230  0.20418794  1
  Tc  Tc6  1  0.79339092  0.20163770  0.20418794  1
  Tc  Tc7  1  0.29836230  0.29339092  0.29581206  1
  Tc  Tc8  1  0.90087165  0.90192742  0.30776600  1
  Tc  Tc9  1  0.40192742  0.59912835  0.19223400  1
  Tc  Tc10  1  0.59807258  0.40087165  0.19223400  1
  Tc  Tc11  1  0.09912835  0.09807258  0.30776600  1
  Tc  Tc12  1  0.84858086  0.50231163  0.00445003  1
  Tc  Tc13  1  0.00231163  0.65141914  0.49554997  1
  Tc  Tc14  1  0.99768837  0.34858086  0.49554997  1
  Tc  Tc15  1  0.15141914  0.49768837  0.00445003  1
  Tc  Tc16  1  0.20163770  0.20660908  0.79581206  1
  Tc  Tc17  1  0.70660908  0.29836230  0.70418794  1
  Tc  Tc18  1  0.29339092  0.70163770  0.70418794  1
  Tc  Tc19  1  0.79836230  0.79339092  0.79581206  1
  Tc  Tc20  1  0.40087165  0.40192742  0.80776600  1
  Tc  Tc21  1  0.90192742  0.09912835  0.69223400  1
  Tc  Tc22  1  0.09807258  0.90087165  0.69223400  1
  Tc  Tc23  1  0.59912835  0.59807258  0.80776600  1
  P  P24  1  0.70882948  0.99729587  0.99968585  1
  P  P25  1  0.49729587  0.79117052  0.50031415  1
  P  P26  1  0.50270413  0.20882948  0.50031415  1
  P  P27  1  0.29117052  0.00270413  0.99968585  1
  P  P28  1  0.20882948  0.49729587  0.49968585  1
  P  P29  1  0.99729587  0.29117052  0.00031415  1
  P  P30  1  0.00270413  0.70882948  0.00031415  1
  P  P31  1  0.79117052  0.50270413  0.49968585  1
