# generated using pymatgen
data_MnZn4S5
_symmetry_space_group_name_H-M   'P 1'
_cell_length_a   33.56418600
_cell_length_b   3.87600000
_cell_length_c   6.34926539
_cell_angle_alpha   90.00000000
_cell_angle_beta   90.03794593
_cell_angle_gamma   90.00000000
_symmetry_Int_Tables_number   1
_chemical_formula_structural   MnZn4S5
_chemical_formula_sum   'Mn4 Zn16 S20'
_cell_volume   826.00613458
_cell_formula_units_Z   4
loop_
 _symmetry_equiv_pos_site_id
 _symmetry_equiv_pos_as_xyz
  1  'x, y, z'
loop_
 _atom_site_type_symbol
 _atom_site_label
 _atom_site_symmetry_multiplicity
 _atom_site_fract_x
 _atom_site_fract_y
 _atom_site_fract_z
 _atom_site_occupancy
  Mn  Mn0  1  0.63272400  0.50000000  0.00137500  1
  Mn  Mn1  1  0.73373900  0.00000000  0.00110900  1
  Mn  Mn2  1  0.13272400  0.00000000  0.00137500  1
  Mn  Mn3  1  0.23373900  0.50000000  0.00110900  1
  Zn  Zn4  1  0.56642100  0.50000000  0.49971400  1
  Zn  Zn5  1  0.66670400  0.00000000  0.49938000  1
  Zn  Zn6  1  0.76699700  0.50000000  0.49985400  1
  Zn  Zn7  1  0.86669200  0.00000000  0.49984900  1
  Zn  Zn8  1  0.96664700  0.50000000  0.49982200  1
  Zn  Zn9  1  0.53302000  0.00000000  0.99961900  1
  Zn  Zn10  1  0.83369300  0.50000000  0.99946000  1
  Zn  Zn11  1  0.93333800  0.00000000  0.99935300  1
  Zn  Zn12  1  0.06642100  0.00000000  0.49971400  1
  Zn  Zn13  1  0.16670400  0.50000000  0.49938000  1
  Zn  Zn14  1  0.26699700  0.00000000  0.49985400  1
  Zn  Zn15  1  0.36669200  0.50000000  0.49984900  1
  Zn  Zn16  1  0.46664700  0.00000000  0.49982200  1
  Zn  Zn17  1  0.03302000  0.50000000  0.99961900  1
  Zn  Zn18  1  0.33369300  0.00000000  0.99946000  1
  Zn  Zn19  1  0.43333800  0.50000000  0.99935300  1
  S  S20  1  0.56546750  0.50000000  0.87276600  1
  S  S21  1  0.66669700  0.00000000  0.86777000  1
  S  S22  1  0.76809400  0.50000000  0.87054000  1
  S  S23  1  0.86682200  0.00000000  0.87440400  1
  S  S24  1  0.96655100  0.50000000  0.87439300  1
  S  S25  1  0.53339900  0.00000000  0.37396300  1
  S  S26  1  0.63328500  0.50000000  0.37919500  1
  S  S27  1  0.73333500  0.00000000  0.37926000  1
  S  S28  1  0.83336500  0.50000000  0.37379700  1
  S  S29  1  0.93336400  0.00000000  0.37437700  1
  S  S30  1  0.06546750  0.00000000  0.87276600  1
  S  S31  1  0.16669700  0.50000000  0.86777000  1
  S  S32  1  0.26809400  0.00000000  0.87054000  1
  S  S33  1  0.36682200  0.50000000  0.87440400  1
  S  S34  1  0.46655100  0.00000000  0.87439300  1
  S  S35  1  0.03339900  0.50000000  0.37396300  1
  S  S36  1  0.13328500  0.00000000  0.37919500  1
  S  S37  1  0.23333500  0.50000000  0.37926000  1
  S  S38  1  0.33336500  0.00000000  0.37379700  1
  S  S39  1  0.43336400  0.50000000  0.37437700  1
