# generated using pymatgen
data_In3GaTe4
_symmetry_space_group_name_H-M   'P 1'
_cell_length_a   8.61393600
_cell_length_b   8.61393600
_cell_length_c   7.02009200
_cell_angle_alpha   90.00000000
_cell_angle_beta   90.00000000
_cell_angle_gamma   90.00000000
_symmetry_Int_Tables_number   1
_chemical_formula_structural   In3GaTe4
_chemical_formula_sum   'In6 Ga2 Te8'
_cell_volume   520.89007814
_cell_formula_units_Z   2
loop_
 _symmetry_equiv_pos_site_id
 _symmetry_equiv_pos_as_xyz
  1  'x, y, z'
loop_
 _atom_site_type_symbol
 _atom_site_label
 _atom_site_symmetry_multiplicity
 _atom_site_fract_x
 _atom_site_fract_y
 _atom_site_fract_z
 _atom_site_occupancy
  In  In0  1  0.50000000  0.00000000  0.00000000  1
  In  In1  1  0.50000000  0.00000000  0.50000000  1
  In  In2  1  0.00000000  0.00000000  0.50000000  1
  In  In3  1  0.00000000  0.50000000  0.50000000  1
  In  In4  1  0.00000000  0.50000000  0.00000000  1
  In  In5  1  0.50000000  0.50000000  0.00000000  1
  Ga  Ga6  1  0.00000000  0.00000000  0.00000000  1
  Ga  Ga7  1  0.50000000  0.50000000  0.50000000  1
  Te  Te8  1  0.67579600  0.67579600  0.73289500  1
  Te  Te9  1  0.82420400  0.82420400  0.23289500  1
  Te  Te10  1  0.82420400  0.17579600  0.76710500  1
  Te  Te11  1  0.67579600  0.32420400  0.26710500  1
  Te  Te12  1  0.17579600  0.17579600  0.23289500  1
  Te  Te13  1  0.32420400  0.32420400  0.73289500  1
  Te  Te14  1  0.32420400  0.67579600  0.26710500  1
  Te  Te15  1  0.17579600  0.82420400  0.76710500  1
