# generated using pymatgen
data_Ca3(GeIr)4
_symmetry_space_group_name_H-M   'P 1'
_cell_length_a   7.59136144
_cell_length_b   7.59136144
_cell_length_c   7.59136144
_cell_angle_alpha   90.00000000
_cell_angle_beta   90.00000000
_cell_angle_gamma   90.00000000
_symmetry_Int_Tables_number   1
_chemical_formula_structural   Ca3(GeIr)4
_chemical_formula_sum   'Ca6 Ge8 Ir8'
_cell_volume   437.48081112
_cell_formula_units_Z   2
loop_
 _symmetry_equiv_pos_site_id
 _symmetry_equiv_pos_as_xyz
  1  'x, y, z'
loop_
 _atom_site_type_symbol
 _atom_site_label
 _atom_site_symmetry_multiplicity
 _atom_site_fract_x
 _atom_site_fract_y
 _atom_site_fract_z
 _atom_site_occupancy
  Ca  Ca0  1  0.50000000  0.00000000  0.00000000  1
  Ca  Ca1  1  0.00000000  0.50000000  0.00000000  1
  Ca  Ca2  1  0.00000000  0.00000000  0.50000000  1
  Ca  Ca3  1  0.00000000  0.50000000  0.50000000  1
  Ca  Ca4  1  0.50000000  0.00000000  0.50000000  1
  Ca  Ca5  1  0.50000000  0.50000000  0.00000000  1
  Ge  Ge6  1  0.68667035  0.31332965  0.31332965  1
  Ge  Ge7  1  0.31332965  0.68667035  0.31332965  1
  Ge  Ge8  1  0.31332965  0.31332965  0.68667035  1
  Ge  Ge9  1  0.18667035  0.18667035  0.18667035  1
  Ge  Ge10  1  0.18667035  0.81332965  0.81332965  1
  Ge  Ge11  1  0.81332965  0.18667035  0.81332965  1
  Ge  Ge12  1  0.81332965  0.81332965  0.18667035  1
  Ge  Ge13  1  0.68667035  0.68667035  0.68667035  1
  Ir  Ir14  1  0.86506945  0.13493055  0.13493055  1
  Ir  Ir15  1  0.13493055  0.86506945  0.13493055  1
  Ir  Ir16  1  0.13493055  0.13493055  0.86506945  1
  Ir  Ir17  1  0.36506945  0.36506945  0.36506945  1
  Ir  Ir18  1  0.36506945  0.63493055  0.63493055  1
  Ir  Ir19  1  0.63493055  0.36506945  0.63493055  1
  Ir  Ir20  1  0.63493055  0.63493055  0.36506945  1
  Ir  Ir21  1  0.86506945  0.86506945  0.86506945  1
