# generated using pymatgen
data_KNa4Cl5
_symmetry_space_group_name_H-M   'P 1'
_cell_length_a   4.16687000
_cell_length_b   4.16687000
_cell_length_c   29.02637800
_cell_angle_alpha   90.00000000
_cell_angle_beta   90.00000000
_cell_angle_gamma   90.00000000
_symmetry_Int_Tables_number   1
_chemical_formula_structural   KNa4Cl5
_chemical_formula_sum   'K2 Na8 Cl10'
_cell_volume   503.97935840
_cell_formula_units_Z   2
loop_
 _symmetry_equiv_pos_site_id
 _symmetry_equiv_pos_as_xyz
  1  'x, y, z'
loop_
 _atom_site_type_symbol
 _atom_site_label
 _atom_site_symmetry_multiplicity
 _atom_site_fract_x
 _atom_site_fract_y
 _atom_site_fract_z
 _atom_site_occupancy
  K  K0  1  0.00000000  0.00000000  0.00000000  1
  K  K1  1  0.50000000  0.50000000  0.50000000  1
  Na  Na2  1  0.00000000  0.00000000  0.39689700  1
  Na  Na3  1  0.50000000  0.50000000  0.29829800  1
  Na  Na4  1  0.00000000  0.00000000  0.20170200  1
  Na  Na5  1  0.50000000  0.50000000  0.10310300  1
  Na  Na6  1  0.50000000  0.50000000  0.89689700  1
  Na  Na7  1  0.00000000  0.00000000  0.79829800  1
  Na  Na8  1  0.50000000  0.50000000  0.70170200  1
  Na  Na9  1  0.00000000  0.00000000  0.60310300  1
  Cl  Cl10  1  0.00000000  0.00000000  0.10541900  1
  Cl  Cl11  1  0.50000000  0.50000000  0.00000000  1
  Cl  Cl12  1  0.50000000  0.50000000  0.39458100  1
  Cl  Cl13  1  0.00000000  0.00000000  0.29932700  1
  Cl  Cl14  1  0.50000000  0.50000000  0.20067300  1
  Cl  Cl15  1  0.50000000  0.50000000  0.60541900  1
  Cl  Cl16  1  0.00000000  0.00000000  0.50000000  1
  Cl  Cl17  1  0.00000000  0.00000000  0.89458100  1
  Cl  Cl18  1  0.50000000  0.50000000  0.79932700  1
  Cl  Cl19  1  0.00000000  0.00000000  0.70067300  1
