# generated using pymatgen
data_Nb2PdS6
_symmetry_space_group_name_H-M   'P 1'
_cell_length_a   12.37492127
_cell_length_b   3.30375732
_cell_length_c   10.16624742
_cell_angle_alpha   90.00000000
_cell_angle_beta   117.25897418
_cell_angle_gamma   90.00000000
_symmetry_Int_Tables_number   1
_chemical_formula_structural   Nb2PdS6
_chemical_formula_sum   'Nb4 Pd2 S12'
_cell_volume   369.47610097
_cell_formula_units_Z   2
loop_
 _symmetry_equiv_pos_site_id
 _symmetry_equiv_pos_as_xyz
  1  'x, y, z'
loop_
 _atom_site_type_symbol
 _atom_site_label
 _atom_site_symmetry_multiplicity
 _atom_site_fract_x
 _atom_site_fract_y
 _atom_site_fract_z
 _atom_site_occupancy
  Nb  Nb0  1  0.68313486  0.00000000  0.29251010  1
  Nb  Nb1  1  0.31686514  0.00000000  0.70748990  1
  Nb  Nb2  1  0.18313486  0.50000000  0.29251010  1
  Nb  Nb3  1  0.81686514  0.50000000  0.70748990  1
  Pd  Pd4  1  0.00000000  0.00000000  0.00000000  1
  Pd  Pd5  1  0.50000000  0.50000000  0.00000000  1
  S  S6  1  0.98529759  0.00000000  0.76214015  1
  S  S7  1  0.01470241  0.00000000  0.23785985  1
  S  S8  1  0.16374760  0.50000000  0.53929344  1
  S  S9  1  0.83625240  0.50000000  0.46070656  1
  S  S10  1  0.71215639  0.50000000  0.12744974  1
  S  S11  1  0.28784361  0.50000000  0.87255026  1
  S  S12  1  0.48529759  0.50000000  0.76214015  1
  S  S13  1  0.51470241  0.50000000  0.23785985  1
  S  S14  1  0.66374760  0.00000000  0.53929344  1
  S  S15  1  0.33625240  0.00000000  0.46070656  1
  S  S16  1  0.21215639  0.00000000  0.12744974  1
  S  S17  1  0.78784361  0.00000000  0.87255026  1
