# generated using pymatgen
data_V3GeN
_symmetry_space_group_name_H-M   'P 1'
_cell_length_a   3.03102870
_cell_length_b   10.01601793
_cell_length_c   7.74699212
_cell_angle_alpha   90.00000000
_cell_angle_beta   90.00000000
_cell_angle_gamma   90.00000000
_symmetry_Int_Tables_number   1
_chemical_formula_structural   V3GeN
_chemical_formula_sum   'V12 Ge4 N4'
_cell_volume   235.18967723
_cell_formula_units_Z   4
loop_
 _symmetry_equiv_pos_site_id
 _symmetry_equiv_pos_as_xyz
  1  'x, y, z'
loop_
 _atom_site_type_symbol
 _atom_site_label
 _atom_site_symmetry_multiplicity
 _atom_site_fract_x
 _atom_site_fract_y
 _atom_site_fract_z
 _atom_site_occupancy
  V  V0  1  0.00000000  0.03515792  0.75000000  1
  V  V1  1  0.50000000  0.46484208  0.25000000  1
  V  V2  1  0.00000000  0.37230902  0.95414869  1
  V  V3  1  0.50000000  0.12769098  0.04585131  1
  V  V4  1  0.00000000  0.37230902  0.54585131  1
  V  V5  1  0.50000000  0.12769098  0.45414869  1
  V  V6  1  0.50000000  0.53515792  0.75000000  1
  V  V7  1  0.00000000  0.96484208  0.25000000  1
  V  V8  1  0.50000000  0.87230902  0.95414869  1
  V  V9  1  0.00000000  0.62769098  0.04585131  1
  V  V10  1  0.50000000  0.87230902  0.54585131  1
  V  V11  1  0.00000000  0.62769098  0.45414869  1
  Ge  Ge12  1  0.50000000  0.24183531  0.75000000  1
  Ge  Ge13  1  0.00000000  0.25816469  0.25000000  1
  Ge  Ge14  1  0.00000000  0.74183531  0.75000000  1
  Ge  Ge15  1  0.50000000  0.75816469  0.25000000  1
  N  N16  1  0.00000000  0.00000000  0.00000000  1
  N  N17  1  0.00000000  0.00000000  0.50000000  1
  N  N18  1  0.50000000  0.50000000  0.00000000  1
  N  N19  1  0.50000000  0.50000000  0.50000000  1
