# generated using pymatgen
data_KGa3
_symmetry_space_group_name_H-M   'P 1'
_cell_length_a   6.23285852
_cell_length_b   6.23285852
_cell_length_c   14.71120746
_cell_angle_alpha   90.00000000
_cell_angle_beta   90.00000000
_cell_angle_gamma   90.00000000
_symmetry_Int_Tables_number   1
_chemical_formula_structural   KGa3
_chemical_formula_sum   'K6 Ga18'
_cell_volume   571.50871594
_cell_formula_units_Z   6
loop_
 _symmetry_equiv_pos_site_id
 _symmetry_equiv_pos_as_xyz
  1  'x, y, z'
loop_
 _atom_site_type_symbol
 _atom_site_label
 _atom_site_symmetry_multiplicity
 _atom_site_fract_x
 _atom_site_fract_y
 _atom_site_fract_z
 _atom_site_occupancy
  K  K0  1  0.00000000  0.50000000  0.12654446  1
  K  K1  1  0.00000000  0.50000000  0.37345554  1
  K  K2  1  0.00000000  0.00000000  0.50000000  1
  K  K3  1  0.50000000  0.00000000  0.62654446  1
  K  K4  1  0.50000000  0.00000000  0.87345554  1
  K  K5  1  0.50000000  0.50000000  0.00000000  1
  Ga  Ga6  1  0.79429185  0.00000000  0.27816905  1
  Ga  Ga7  1  0.50000000  0.29429185  0.22183095  1
  Ga  Ga8  1  0.50000000  0.80605809  0.39220281  1
  Ga  Ga9  1  0.30605809  0.00000000  0.10779719  1
  Ga  Ga10  1  0.69394191  0.00000000  0.10779719  1
  Ga  Ga11  1  0.50000000  0.19394191  0.39220281  1
  Ga  Ga12  1  0.20570815  0.00000000  0.27816905  1
  Ga  Ga13  1  0.50000000  0.70570815  0.22183095  1
  Ga  Ga14  1  0.50000000  0.50000000  0.50000000  1
  Ga  Ga15  1  0.29429185  0.50000000  0.77816905  1
  Ga  Ga16  1  0.00000000  0.79429185  0.72183095  1
  Ga  Ga17  1  0.00000000  0.30605809  0.89220281  1
  Ga  Ga18  1  0.80605809  0.50000000  0.60779719  1
  Ga  Ga19  1  0.19394191  0.50000000  0.60779719  1
  Ga  Ga20  1  0.00000000  0.69394191  0.89220281  1
  Ga  Ga21  1  0.70570815  0.50000000  0.77816905  1
  Ga  Ga22  1  0.00000000  0.20570815  0.72183095  1
  Ga  Ga23  1  0.00000000  0.00000000  0.00000000  1
