# generated using pymatgen
data_Sr6Ga5N
_symmetry_space_group_name_H-M   'P 1'
_cell_length_a   7.57161207
_cell_length_b   7.57161207
_cell_length_c   40.15479229
_cell_angle_alpha   90.00000000
_cell_angle_beta   90.00000000
_cell_angle_gamma   120.00000000
_symmetry_Int_Tables_number   1
_chemical_formula_structural   Sr6Ga5N
_chemical_formula_sum   'Sr36 Ga30 N6'
_cell_volume   1993.63075663
_cell_formula_units_Z   6
loop_
 _symmetry_equiv_pos_site_id
 _symmetry_equiv_pos_as_xyz
  1  'x, y, z'
loop_
 _atom_site_type_symbol
 _atom_site_label
 _atom_site_symmetry_multiplicity
 _atom_site_fract_x
 _atom_site_fract_y
 _atom_site_fract_z
 _atom_site_occupancy
  Sr  Sr0  1  0.34596982  0.11170809  0.86951302  1
  Sr  Sr1  1  0.88829191  0.23426174  0.86951302  1
  Sr  Sr2  1  0.76573826  0.65403018  0.86951302  1
  Sr  Sr3  1  0.32069684  0.09907160  0.96382032  1
  Sr  Sr4  1  0.90092840  0.22162525  0.96382032  1
  Sr  Sr5  1  0.77837475  0.67930316  0.96382032  1
  Sr  Sr6  1  0.98736351  0.55495858  0.79715365  1
  Sr  Sr7  1  0.44504142  0.43240493  0.79715365  1
  Sr  Sr8  1  0.56759507  0.01263649  0.79715365  1
  Sr  Sr9  1  0.01263649  0.56759507  0.70284635  1
  Sr  Sr10  1  0.43240493  0.44504142  0.70284635  1
  Sr  Sr11  1  0.55495858  0.98736351  0.70284635  1
  Sr  Sr12  1  0.01263649  0.44504142  0.20284635  1
  Sr  Sr13  1  0.55495858  0.56759507  0.20284635  1
  Sr  Sr14  1  0.43240493  0.98736351  0.20284635  1
  Sr  Sr15  1  0.98736351  0.43240493  0.29715365  1
  Sr  Sr16  1  0.56759507  0.55495858  0.29715365  1
  Sr  Sr17  1  0.44504142  0.01263649  0.29715365  1
  Sr  Sr18  1  0.65403018  0.88829191  0.13048698  1
  Sr  Sr19  1  0.11170809  0.76573826  0.13048698  1
  Sr  Sr20  1  0.23426174  0.34596982  0.13048698  1
  Sr  Sr21  1  0.67930316  0.90092840  0.03617968  1
  Sr  Sr22  1  0.09907160  0.77837475  0.03617968  1
  Sr  Sr23  1  0.22162525  0.32069684  0.03617968  1
  Sr  Sr24  1  0.67930316  0.77837475  0.53617968  1
  Sr  Sr25  1  0.22162525  0.90092840  0.53617968  1
  Sr  Sr26  1  0.09907160  0.32069684  0.53617968  1
  Sr  Sr27  1  0.65403018  0.76573826  0.63048698  1
  Sr  Sr28  1  0.23426174  0.88829191  0.63048698  1
  Sr  Sr29  1  0.11170809  0.34596982  0.63048698  1
  Sr  Sr30  1  0.32069684  0.22162525  0.46382032  1
  Sr  Sr31  1  0.77837475  0.09907160  0.46382032  1
  Sr  Sr32  1  0.90092840  0.67930316  0.46382032  1
  Sr  Sr33  1  0.34596982  0.23426174  0.36951302  1
  Sr  Sr34  1  0.76573826  0.11170809  0.36951302  1
  Sr  Sr35  1  0.88829191  0.65403018  0.36951302  1
  Ga  Ga36  1  0.00000000  0.20645727  0.75000000  1
  Ga  Ga37  1  0.00000000  0.00000000  0.80478917  1
  Ga  Ga38  1  0.33333333  0.66666667  0.97145584  1
  Ga  Ga39  1  0.00000000  0.00000000  0.69521083  1
  Ga  Ga40  1  0.33333333  0.66666667  0.86187749  1
  Ga  Ga41  1  0.79354273  0.79354273  0.75000000  1
  Ga  Ga42  1  0.20645727  0.00000000  0.75000000  1
  Ga  Ga43  1  0.33333333  0.46020940  0.91666667  1
  Ga  Ga44  1  0.53979060  0.87312393  0.91666667  1
  Ga  Ga45  1  0.12687607  0.66666667  0.91666667  1
  Ga  Ga46  1  0.66666667  0.53979060  0.08333333  1
  Ga  Ga47  1  0.66666667  0.33333333  0.13812251  1
  Ga  Ga48  1  0.00000000  0.00000000  0.30478917  1
  Ga  Ga49  1  0.66666667  0.33333333  0.02854416  1
  Ga  Ga50  1  1.00000000  0.00000000  0.19521083  1
  Ga  Ga51  1  0.46020940  0.12687607  0.08333333  1
  Ga  Ga52  1  0.87312393  0.33333333  0.08333333  1
  Ga  Ga53  1  0.00000000  0.79354273  0.25000000  1
  Ga  Ga54  1  0.20645727  0.20645727  0.25000000  1
  Ga  Ga55  1  0.79354273  0.00000000  0.25000000  1
  Ga  Ga56  1  0.33333333  0.87312393  0.41666667  1
  Ga  Ga57  1  0.33333333  0.66666667  0.47145584  1
  Ga  Ga58  1  0.66666667  0.33333333  0.63812251  1
  Ga  Ga59  1  0.33333333  0.66666667  0.36187749  1
  Ga  Ga60  1  0.66666667  0.33333333  0.52854416  1
  Ga  Ga61  1  0.12687607  0.46020940  0.41666667  1
  Ga  Ga62  1  0.53979060  0.66666667  0.41666667  1
  Ga  Ga63  1  0.66666667  0.12687607  0.58333333  1
  Ga  Ga64  1  0.87312393  0.53979060  0.58333333  1
  Ga  Ga65  1  0.46020940  0.33333333  0.58333333  1
  N  N66  1  0.66666667  0.33333333  0.83333333  1
  N  N67  1  0.33333333  0.66666667  0.66666667  1
  N  N68  1  0.33333333  0.66666667  0.16666667  1
  N  N69  1  1.00000000  0.00000000  0.00000000  1
  N  N70  1  0.00000000  1.00000000  0.50000000  1
  N  N71  1  0.66666667  0.33333333  0.33333333  1
