# generated using pymatgen
data_Ga5Ag13
_symmetry_space_group_name_H-M   'P 1'
_cell_length_a   2.88882309
_cell_length_b   7.75718162
_cell_length_c   13.36581174
_cell_angle_alpha   89.99647848
_cell_angle_beta   89.93986727
_cell_angle_gamma   89.93214377
_symmetry_Int_Tables_number   1
_chemical_formula_structural   Ga5Ag13
_chemical_formula_sum   'Ga5 Ag13'
_cell_volume   299.51577522
_cell_formula_units_Z   1
loop_
 _symmetry_equiv_pos_site_id
 _symmetry_equiv_pos_as_xyz
  1  'x, y, z'
loop_
 _atom_site_type_symbol
 _atom_site_label
 _atom_site_symmetry_multiplicity
 _atom_site_fract_x
 _atom_site_fract_y
 _atom_site_fract_z
 _atom_site_occupancy
  Ga  Ga0  1  0.75163843  0.00062422  0.33313262  1
  Ga  Ga1  1  0.24951398  0.99912469  0.66806347  1
  Ga  Ga2  1  0.24677684  0.50012748  0.16496196  1
  Ga  Ga3  1  0.99421711  0.00053618  0.99886459  1
  Ga  Ga4  1  0.99474613  0.49897164  0.50156392  1
  Ag  Ag5  1  0.25487771  0.67107254  0.98869599  1
  Ag  Ag6  1  0.25138796  0.16470939  0.48362361  1
  Ag  Ag7  1  0.25649714  0.64872189  0.67055237  1
  Ag  Ag8  1  0.25291490  0.14305073  0.17556759  1
  Ag  Ag9  1  0.25635278  0.18496851  0.84102626  1
  Ag  Ag10  1  0.25434042  0.68887124  0.34046543  1
  Ag  Ag11  1  0.74955231  0.83620153  0.51312059  1
  Ag  Ag12  1  0.74563714  0.33213994  0.01808694  1
  Ag  Ag13  1  0.74630226  0.85744369  0.82481793  1
  Ag  Ag14  1  0.74850142  0.35616158  0.32500973  1
  Ag  Ag15  1  0.74461320  0.30595723  0.65746559  1
  Ag  Ag16  1  0.74803578  0.81129164  0.16154408  1
  Ag  Ag17  1  0.75409452  0.50002590  0.83343834  1
