# generated using pymatgen
data_Cu(SnS2)4
_symmetry_space_group_name_H-M   'P 1'
_cell_length_a   10.60144000
_cell_length_b   10.60144000
_cell_length_c   10.60144000
_cell_angle_alpha   90.00000000
_cell_angle_beta   90.00000000
_cell_angle_gamma   90.00000000
_symmetry_Int_Tables_number   1
_chemical_formula_structural   Cu(SnS2)4
_chemical_formula_sum   'Cu4 Sn16 S32'
_cell_volume   1191.50146114
_cell_formula_units_Z   4
loop_
 _symmetry_equiv_pos_site_id
 _symmetry_equiv_pos_as_xyz
  1  'x, y, z'
loop_
 _atom_site_type_symbol
 _atom_site_label
 _atom_site_symmetry_multiplicity
 _atom_site_fract_x
 _atom_site_fract_y
 _atom_site_fract_z
 _atom_site_occupancy
  Cu  Cu0  1  0.50000000  0.00000000  0.00000000  1
  Cu  Cu1  1  0.50000000  0.50000000  0.50000000  1
  Cu  Cu2  1  0.00000000  0.00000000  0.50000000  1
  Cu  Cu3  1  0.00000000  0.50000000  0.00000000  1
  Sn  Sn4  1  0.12149900  0.37850100  0.62149900  1
  Sn  Sn5  1  0.37850100  0.12149900  0.62149900  1
  Sn  Sn6  1  0.12149900  0.12149900  0.87850100  1
  Sn  Sn7  1  0.37850100  0.37850100  0.87850100  1
  Sn  Sn8  1  0.12149900  0.87850100  0.12149900  1
  Sn  Sn9  1  0.37850100  0.62149900  0.12149900  1
  Sn  Sn10  1  0.12149900  0.62149900  0.37850100  1
  Sn  Sn11  1  0.37850100  0.87850100  0.37850100  1
  Sn  Sn12  1  0.62149900  0.37850100  0.12149900  1
  Sn  Sn13  1  0.87850100  0.12149900  0.12149900  1
  Sn  Sn14  1  0.62149900  0.12149900  0.37850100  1
  Sn  Sn15  1  0.87850100  0.37850100  0.37850100  1
  Sn  Sn16  1  0.62149900  0.87850100  0.62149900  1
  Sn  Sn17  1  0.87850100  0.62149900  0.62149900  1
  Sn  Sn18  1  0.62149900  0.62149900  0.87850100  1
  Sn  Sn19  1  0.87850100  0.87850100  0.87850100  1
  S  S20  1  0.12707333  0.37292667  0.87292667  1
  S  S21  1  0.62707333  0.12707333  0.12707333  1
  S  S22  1  0.87292667  0.37292667  0.12707333  1
  S  S23  1  0.37610900  0.12389100  0.37610900  1
  S  S24  1  0.37292667  0.12707333  0.87292667  1
  S  S25  1  0.12389100  0.37610900  0.37610900  1
  S  S26  1  0.37610900  0.37610900  0.12389100  1
  S  S27  1  0.12389100  0.12389100  0.12389100  1
  S  S28  1  0.12707333  0.87292667  0.37292667  1
  S  S29  1  0.62707333  0.62707333  0.62707333  1
  S  S30  1  0.87292667  0.87292667  0.62707333  1
  S  S31  1  0.37610900  0.62389100  0.87610900  1
  S  S32  1  0.37292667  0.62707333  0.37292667  1
  S  S33  1  0.12389100  0.87610900  0.87610900  1
  S  S34  1  0.37610900  0.87610900  0.62389100  1
  S  S35  1  0.12389100  0.62389100  0.62389100  1
  S  S36  1  0.62707333  0.37292667  0.37292667  1
  S  S37  1  0.12707333  0.12707333  0.62707333  1
  S  S38  1  0.37292667  0.37292667  0.62707333  1
  S  S39  1  0.87610900  0.12389100  0.87610900  1
  S  S40  1  0.87292667  0.12707333  0.37292667  1
  S  S41  1  0.62389100  0.37610900  0.87610900  1
  S  S42  1  0.87610900  0.37610900  0.62389100  1
  S  S43  1  0.62389100  0.12389100  0.62389100  1
  S  S44  1  0.62707333  0.87292667  0.87292667  1
  S  S45  1  0.12707333  0.62707333  0.12707333  1
  S  S46  1  0.37292667  0.87292667  0.12707333  1
  S  S47  1  0.87610900  0.62389100  0.37610900  1
  S  S48  1  0.87292667  0.62707333  0.87292667  1
  S  S49  1  0.62389100  0.87610900  0.37610900  1
  S  S50  1  0.87610900  0.87610900  0.12389100  1
  S  S51  1  0.62389100  0.62389100  0.12389100  1
