# generated using pymatgen
data_Sr3(AlGe)2
_symmetry_space_group_name_H-M   'P 1'
_cell_length_a   4.23171768
_cell_length_b   4.86564731
_cell_length_c   19.25251292
_cell_angle_alpha   90.00000000
_cell_angle_beta   90.00000000
_cell_angle_gamma   90.00000000
_symmetry_Int_Tables_number   1
_chemical_formula_structural   Sr3(AlGe)2
_chemical_formula_sum   'Sr6 Al4 Ge4'
_cell_volume   396.41012152
_cell_formula_units_Z   2
loop_
 _symmetry_equiv_pos_site_id
 _symmetry_equiv_pos_as_xyz
  1  'x, y, z'
loop_
 _atom_site_type_symbol
 _atom_site_label
 _atom_site_symmetry_multiplicity
 _atom_site_fract_x
 _atom_site_fract_y
 _atom_site_fract_z
 _atom_site_occupancy
  Sr  Sr0  1  0.00000000  0.50000000  0.31535334  1
  Sr  Sr1  1  0.00000000  0.00000000  0.00000000  1
  Sr  Sr2  1  0.50000000  0.00000000  0.18464666  1
  Sr  Sr3  1  0.50000000  0.00000000  0.81535334  1
  Sr  Sr4  1  0.50000000  0.50000000  0.50000000  1
  Sr  Sr5  1  0.00000000  0.50000000  0.68464666  1
  Al  Al6  1  0.00000000  0.00000000  0.43340595  1
  Al  Al7  1  0.50000000  0.50000000  0.06659405  1
  Al  Al8  1  0.50000000  0.50000000  0.93340595  1
  Al  Al9  1  0.00000000  0.00000000  0.56659405  1
  Ge  Ge10  1  0.50000000  0.00000000  0.35946392  1
  Ge  Ge11  1  0.00000000  0.50000000  0.14053608  1
  Ge  Ge12  1  0.00000000  0.50000000  0.85946392  1
  Ge  Ge13  1  0.50000000  0.00000000  0.64053608  1
