# generated using pymatgen
data_HfAsRu
_symmetry_space_group_name_H-M   'P 1'
_cell_length_a   6.70329200
_cell_length_b   7.65279000
_cell_length_c   11.51282400
_cell_angle_alpha   90.00000000
_cell_angle_beta   90.00000000
_cell_angle_gamma   90.00000000
_symmetry_Int_Tables_number   1
_chemical_formula_structural   HfAsRu
_chemical_formula_sum   'Hf12 As12 Ru12'
_cell_volume   590.59504574
_cell_formula_units_Z   12
loop_
 _symmetry_equiv_pos_site_id
 _symmetry_equiv_pos_as_xyz
  1  'x, y, z'
loop_
 _atom_site_type_symbol
 _atom_site_label
 _atom_site_symmetry_multiplicity
 _atom_site_fract_x
 _atom_site_fract_y
 _atom_site_fract_z
 _atom_site_occupancy
  Hf  Hf0  1  0.02540000  0.75000000  0.28258200  1
  Hf  Hf1  1  0.52540000  0.75000000  0.21741800  1
  Hf  Hf2  1  0.16672000  0.75000000  0.00137900  1
  Hf  Hf3  1  0.66672000  0.75000000  0.49862100  1
  Hf  Hf4  1  0.54437600  0.25000000  0.19782900  1
  Hf  Hf5  1  0.04437600  0.25000000  0.30217100  1
  Hf  Hf6  1  0.52540000  0.25000000  0.78258200  1
  Hf  Hf7  1  0.02540000  0.25000000  0.71741800  1
  Hf  Hf8  1  0.66672000  0.25000000  0.50137900  1
  Hf  Hf9  1  0.16672000  0.25000000  0.99862100  1
  Hf  Hf10  1  0.04437600  0.75000000  0.69782900  1
  Hf  Hf11  1  0.54437600  0.75000000  0.80217100  1
  As  As12  1  0.24980950  0.75000000  0.47327150  1
  As  As13  1  0.74980950  0.75000000  0.02672850  1
  As  As14  1  0.24617300  0.49504600  0.16638300  1
  As  As15  1  0.74617300  0.00495400  0.33361700  1
  As  As16  1  0.74617300  0.49504600  0.33361700  1
  As  As17  1  0.24617300  0.00495400  0.16638300  1
  As  As18  1  0.74980950  0.25000000  0.97327150  1
  As  As19  1  0.24980950  0.25000000  0.52672850  1
  As  As20  1  0.74617300  0.99504600  0.66638300  1
  As  As21  1  0.24617300  0.50495400  0.83361700  1
  As  As22  1  0.24617300  0.99504600  0.83361700  1
  As  As23  1  0.74617300  0.50495400  0.66638300  1
  Ru  Ru24  1  0.50145800  0.50000000  0.00000000  1
  Ru  Ru25  1  0.50145800  0.00000000  0.00000000  1
  Ru  Ru26  1  0.37004550  0.47211750  0.37761550  1
  Ru  Ru27  1  0.87004550  0.02788250  0.12238450  1
  Ru  Ru28  1  0.87004550  0.47211750  0.12238450  1
  Ru  Ru29  1  0.37004550  0.02788250  0.37761550  1
  Ru  Ru30  1  0.00145800  0.00000000  0.50000000  1
  Ru  Ru31  1  0.00145800  0.50000000  0.50000000  1
  Ru  Ru32  1  0.87004550  0.97211750  0.87761550  1
  Ru  Ru33  1  0.37004550  0.52788250  0.62238450  1
  Ru  Ru34  1  0.37004550  0.97211750  0.62238450  1
  Ru  Ru35  1  0.87004550  0.52788250  0.87761550  1
