# generated using pymatgen
data_Sr3WN3
_symmetry_space_group_name_H-M   'P 1'
_cell_length_a   7.95243710
_cell_length_b   7.95243710
_cell_length_c   5.34462689
_cell_angle_alpha   90.00000000
_cell_angle_beta   90.00000000
_cell_angle_gamma   120.00000000
_symmetry_Int_Tables_number   1
_chemical_formula_structural   Sr3WN3
_chemical_formula_sum   'Sr6 W2 N6'
_cell_volume   292.71738016
_cell_formula_units_Z   2
loop_
 _symmetry_equiv_pos_site_id
 _symmetry_equiv_pos_as_xyz
  1  'x, y, z'
loop_
 _atom_site_type_symbol
 _atom_site_label
 _atom_site_symmetry_multiplicity
 _atom_site_fract_x
 _atom_site_fract_y
 _atom_site_fract_z
 _atom_site_occupancy
  Sr  Sr0  1  0.90424658  0.65004214  0.25000000  1
  Sr  Sr1  1  0.74579556  0.09575342  0.25000000  1
  Sr  Sr2  1  0.34995786  0.25420444  0.25000000  1
  Sr  Sr3  1  0.09575342  0.34995786  0.75000000  1
  Sr  Sr4  1  0.25420444  0.90424658  0.75000000  1
  Sr  Sr5  1  0.65004214  0.74579556  0.75000000  1
  W  W6  1  0.66666667  0.33333333  0.75000000  1
  W  W7  1  0.33333333  0.66666667  0.25000000  1
  N  N8  1  0.88386698  0.58052775  0.75000000  1
  N  N9  1  0.69666077  0.11613302  0.75000000  1
  N  N10  1  0.41947225  0.30333923  0.75000000  1
  N  N11  1  0.11613302  0.41947225  0.25000000  1
  N  N12  1  0.30333923  0.88386698  0.25000000  1
  N  N13  1  0.58052775  0.69666077  0.25000000  1
