# generated using pymatgen
data_Sr3VN3
_symmetry_space_group_name_H-M   'P 1'
_cell_length_a   7.71746603
_cell_length_b   7.71746603
_cell_length_c   5.37665624
_cell_angle_alpha   90.00000000
_cell_angle_beta   90.00000000
_cell_angle_gamma   120.00000000
_symmetry_Int_Tables_number   1
_chemical_formula_structural   Sr3VN3
_chemical_formula_sum   'Sr6 V2 N6'
_cell_volume   277.32712843
_cell_formula_units_Z   2
loop_
 _symmetry_equiv_pos_site_id
 _symmetry_equiv_pos_as_xyz
  1  'x, y, z'
loop_
 _atom_site_type_symbol
 _atom_site_label
 _atom_site_symmetry_multiplicity
 _atom_site_fract_x
 _atom_site_fract_y
 _atom_site_fract_z
 _atom_site_occupancy
  Sr  Sr0  1  0.90483056  0.63076584  0.25000000  1
  Sr  Sr1  1  0.72593528  0.09516944  0.25000000  1
  Sr  Sr2  1  0.36923416  0.27406472  0.25000000  1
  Sr  Sr3  1  0.09516944  0.36923416  0.75000000  1
  Sr  Sr4  1  0.27406472  0.90483056  0.75000000  1
  Sr  Sr5  1  0.63076584  0.72593528  0.75000000  1
  V  V6  1  0.66666667  0.33333333  0.75000000  1
  V  V7  1  0.33333333  0.66666667  0.25000000  1
  N  N8  1  0.87660235  0.58680769  0.75000000  1
  N  N9  1  0.71020534  0.12339765  0.75000000  1
  N  N10  1  0.41319231  0.28979466  0.75000000  1
  N  N11  1  0.12339765  0.41319231  0.25000000  1
  N  N12  1  0.28979466  0.87660235  0.25000000  1
  N  N13  1  0.58680769  0.71020534  0.25000000  1
