# generated using pymatgen
data_Y5SbPd2
_symmetry_space_group_name_H-M   'P 1'
_cell_length_a   7.75066058
_cell_length_b   7.75066058
_cell_length_c   13.72838984
_cell_angle_alpha   90.00000000
_cell_angle_beta   90.00000000
_cell_angle_gamma   90.00000000
_symmetry_Int_Tables_number   1
_chemical_formula_structural   Y5SbPd2
_chemical_formula_sum   'Y20 Sb4 Pd8'
_cell_volume   824.70198560
_cell_formula_units_Z   4
loop_
 _symmetry_equiv_pos_site_id
 _symmetry_equiv_pos_as_xyz
  1  'x, y, z'
loop_
 _atom_site_type_symbol
 _atom_site_label
 _atom_site_symmetry_multiplicity
 _atom_site_fract_x
 _atom_site_fract_y
 _atom_site_fract_z
 _atom_site_occupancy
  Y  Y0  1  0.00000000  0.00000000  0.00000000  1
  Y  Y1  1  0.50000000  0.50000000  0.00000000  1
  Y  Y2  1  0.15599810  0.65599810  0.14257875  1
  Y  Y3  1  0.34400190  0.84400190  0.35742125  1
  Y  Y4  1  0.84400190  0.34400190  0.14257875  1
  Y  Y5  1  0.34400190  0.15599810  0.14257875  1
  Y  Y6  1  0.84400190  0.65599810  0.35742125  1
  Y  Y7  1  0.65599810  0.15599810  0.35742125  1
  Y  Y8  1  0.15599810  0.34400190  0.35742125  1
  Y  Y9  1  0.65599810  0.84400190  0.14257875  1
  Y  Y10  1  0.50000000  0.50000000  0.50000000  1
  Y  Y11  1  0.00000000  0.00000000  0.50000000  1
  Y  Y12  1  0.65599810  0.15599811  0.64257875  1
  Y  Y13  1  0.84400190  0.34400189  0.85742125  1
  Y  Y14  1  0.34400189  0.84400190  0.64257875  1
  Y  Y15  1  0.84400190  0.65599810  0.64257875  1
  Y  Y16  1  0.34400189  0.15599811  0.85742125  1
  Y  Y17  1  0.15599811  0.65599810  0.85742125  1
  Y  Y18  1  0.65599810  0.84400190  0.85742125  1
  Y  Y19  1  0.15599811  0.34400189  0.64257875  1
  Sb  Sb20  1  0.00000000  0.00000000  0.25000000  1
  Sb  Sb21  1  0.50000000  0.50000000  0.25000000  1
  Sb  Sb22  1  0.50000000  0.50000000  0.75000000  1
  Sb  Sb23  1  0.00000000  0.00000000  0.75000000  1
  Pd  Pd24  1  0.63641062  0.13641062  0.00000000  1
  Pd  Pd25  1  0.36358938  0.86358938  0.00000000  1
  Pd  Pd26  1  0.86358938  0.63641062  0.00000000  1
  Pd  Pd27  1  0.13641062  0.36358938  0.00000000  1
  Pd  Pd28  1  0.13641062  0.63641062  0.50000000  1
  Pd  Pd29  1  0.86358938  0.36358938  0.50000000  1
  Pd  Pd30  1  0.36358938  0.13641062  0.50000000  1
  Pd  Pd31  1  0.63641062  0.86358938  0.50000000  1
