# generated using pymatgen
data_Hf4N3
_symmetry_space_group_name_H-M   'P 1'
_cell_length_a   3.17454170
_cell_length_b   3.17454170
_cell_length_c   31.60781635
_cell_angle_alpha   90.00000000
_cell_angle_beta   90.00000000
_cell_angle_gamma   120.00000000
_symmetry_Int_Tables_number   1
_chemical_formula_structural   Hf4N3
_chemical_formula_sum   'Hf12 N9'
_cell_volume   275.85902491
_cell_formula_units_Z   3
loop_
 _symmetry_equiv_pos_site_id
 _symmetry_equiv_pos_as_xyz
  1  'x, y, z'
loop_
 _atom_site_type_symbol
 _atom_site_label
 _atom_site_symmetry_multiplicity
 _atom_site_fract_x
 _atom_site_fract_y
 _atom_site_fract_z
 _atom_site_occupancy
  Hf  Hf0  1  0.33333333  0.66666667  0.04103271  1
  Hf  Hf1  1  0.33333333  0.66666667  0.29166421  1
  Hf  Hf2  1  0.00000000  0.00000000  0.20929335  1
  Hf  Hf3  1  0.66666667  0.33333333  0.12691273  1
  Hf  Hf4  1  0.00000000  0.00000000  0.37436604  1
  Hf  Hf5  1  0.00000000  0.00000000  0.62499754  1
  Hf  Hf6  1  0.66666667  0.33333333  0.54262668  1
  Hf  Hf7  1  0.33333333  0.66666667  0.46024607  1
  Hf  Hf8  1  0.66666667  0.33333333  0.70769937  1
  Hf  Hf9  1  0.66666667  0.33333333  0.95833087  1
  Hf  Hf10  1  0.33333333  0.66666667  0.87596002  1
  Hf  Hf11  1  0.00000000  0.00000000  0.79357940  1
  N  N12  1  0.33333333  0.66666667  0.16558355  1
  N  N13  1  0.66666667  0.33333333  0.33139630  1
  N  N14  1  0.00000000  0.00000000  0.08578380  1
  N  N15  1  0.00000000  0.00000000  0.49891688  1
  N  N16  1  0.33333333  0.66666667  0.66472964  1
  N  N17  1  0.66666667  0.33333333  0.41911713  1
  N  N18  1  0.66666667  0.33333333  0.83225021  1
  N  N19  1  0.00000000  0.00000000  0.99806297  1
  N  N20  1  0.33333333  0.66666667  0.75245047  1
