# generated using pymatgen
data_SrZnSn
_symmetry_space_group_name_H-M   'P 1'
_cell_length_a   4.60772754
_cell_length_b   7.98170076
_cell_length_c   9.21271523
_cell_angle_alpha   90.00000000
_cell_angle_beta   90.00000000
_cell_angle_gamma   90.00000000
_symmetry_Int_Tables_number   1
_chemical_formula_structural   SrZnSn
_chemical_formula_sum   'Sr4 Zn4 Sn4'
_cell_volume   338.82065655
_cell_formula_units_Z   4
loop_
 _symmetry_equiv_pos_site_id
 _symmetry_equiv_pos_as_xyz
  1  'x, y, z'
loop_
 _atom_site_type_symbol
 _atom_site_label
 _atom_site_symmetry_multiplicity
 _atom_site_fract_x
 _atom_site_fract_y
 _atom_site_fract_z
 _atom_site_occupancy
  Sr  Sr0  1  0.00000000  0.00000000  0.50000000  1
  Sr  Sr1  1  0.00000000  0.00000000  0.00000000  1
  Sr  Sr2  1  0.50000000  0.50000000  0.50000000  1
  Sr  Sr3  1  0.50000000  0.50000000  0.00000000  1
  Zn  Zn4  1  0.00000000  0.33408138  0.75000000  1
  Zn  Zn5  1  0.50000000  0.16591862  0.25000000  1
  Zn  Zn6  1  0.50000000  0.83408138  0.75000000  1
  Zn  Zn7  1  0.00000000  0.66591862  0.25000000  1
  Sn  Sn8  1  0.00000000  0.33283151  0.25000000  1
  Sn  Sn9  1  0.50000000  0.16716849  0.75000000  1
  Sn  Sn10  1  0.50000000  0.83283151  0.25000000  1
  Sn  Sn11  1  0.00000000  0.66716849  0.75000000  1
