# generated using pymatgen
data_ZrTiS6
_symmetry_space_group_name_H-M   'P 1'
_cell_length_a   5.11989714
_cell_length_b   3.53591581
_cell_length_c   9.11411948
_cell_angle_alpha   90.00000000
_cell_angle_beta   96.54168769
_cell_angle_gamma   90.00000000
_symmetry_Int_Tables_number   1
_chemical_formula_structural   ZrTiS6
_chemical_formula_sum   'Zr1 Ti1 S6'
_cell_volume   163.92342953
_cell_formula_units_Z   1
loop_
 _symmetry_equiv_pos_site_id
 _symmetry_equiv_pos_as_xyz
  1  'x, y, z'
loop_
 _atom_site_type_symbol
 _atom_site_label
 _atom_site_symmetry_multiplicity
 _atom_site_fract_x
 _atom_site_fract_y
 _atom_site_fract_z
 _atom_site_occupancy
  Zr  Zr0  1  0.27906509  0.00000000  0.64794033  1
  Ti  Ti1  1  0.71932351  0.50000000  0.34807319  1
  S  S2  1  0.51855276  0.50000000  0.82402582  1
  S  S3  1  0.48829683  0.00000000  0.18519774  1
  S  S4  1  0.11644383  0.50000000  0.82680086  1
  S  S5  1  0.88311594  0.00000000  0.18431913  1
  S  S6  1  0.23714097  0.50000000  0.44104674  1
  S  S7  1  0.75806206  0.00000000  0.54259619  1
