# generated using pymatgen
data_Ge(Te2As)2
_symmetry_space_group_name_H-M   'P 1'
_cell_length_a   4.10540346
_cell_length_b   4.10540346
_cell_length_c   41.04069366
_cell_angle_alpha   90.00000000
_cell_angle_beta   90.00000000
_cell_angle_gamma   120.00000000
_symmetry_Int_Tables_number   1
_chemical_formula_structural   Ge(Te2As)2
_chemical_formula_sum   'Ge3 Te12 As6'
_cell_volume   599.04164085
_cell_formula_units_Z   3
loop_
 _symmetry_equiv_pos_site_id
 _symmetry_equiv_pos_as_xyz
  1  'x, y, z'
loop_
 _atom_site_type_symbol
 _atom_site_label
 _atom_site_symmetry_multiplicity
 _atom_site_fract_x
 _atom_site_fract_y
 _atom_site_fract_z
 _atom_site_occupancy
  Ge  Ge0  1  0.00000000  0.00000000  0.00000000  1
  Ge  Ge1  1  0.66666667  0.33333333  0.33333333  1
  Ge  Ge2  1  0.33333333  0.66666667  0.66666667  1
  Te  Te3  1  0.00000000  0.00000000  0.12591088  1
  Te  Te4  1  0.00000000  0.00000000  0.29065528  1
  Te  Te5  1  0.66666667  0.33333333  0.20742245  1
  Te  Te6  1  0.66666667  0.33333333  0.04267805  1
  Te  Te7  1  0.66666667  0.33333333  0.45924421  1
  Te  Te8  1  0.66666667  0.33333333  0.62398861  1
  Te  Te9  1  0.33333333  0.66666667  0.54075579  1
  Te  Te10  1  0.33333333  0.66666667  0.37601139  1
  Te  Te11  1  0.33333333  0.66666667  0.79257755  1
  Te  Te12  1  0.33333333  0.66666667  0.95732195  1
  Te  Te13  1  0.00000000  0.00000000  0.87408912  1
  Te  Te14  1  0.00000000  0.00000000  0.70934472  1
  As  As15  1  0.33333333  0.66666667  0.24531010  1
  As  As16  1  0.33333333  0.66666667  0.08802324  1
  As  As17  1  0.00000000  0.00000000  0.57864343  1
  As  As18  1  0.00000000  0.00000000  0.42135657  1
  As  As19  1  0.66666667  0.33333333  0.91197676  1
  As  As20  1  0.66666667  0.33333333  0.75468990  1
