# generated using pymatgen
data_Mn4VSe5
_symmetry_space_group_name_H-M   'P 1'
_cell_length_a   3.81992829
_cell_length_b   3.81992829
_cell_length_c   46.82758347
_cell_angle_alpha   90.00000000
_cell_angle_beta   90.00000000
_cell_angle_gamma   120.00000000
_symmetry_Int_Tables_number   1
_chemical_formula_structural   Mn4VSe5
_chemical_formula_sum   'Mn12 V3 Se15'
_cell_volume   591.75617512
_cell_formula_units_Z   3
loop_
 _symmetry_equiv_pos_site_id
 _symmetry_equiv_pos_as_xyz
  1  'x, y, z'
loop_
 _atom_site_type_symbol
 _atom_site_label
 _atom_site_symmetry_multiplicity
 _atom_site_fract_x
 _atom_site_fract_y
 _atom_site_fract_z
 _atom_site_occupancy
  Mn  Mn0  1  0.33333333  0.66666667  0.06665367  1
  Mn  Mn1  1  0.66666667  0.33333333  0.13323433  1
  Mn  Mn2  1  0.00000000  0.00000000  0.20009900  1
  Mn  Mn3  1  0.33333333  0.66666667  0.26667967  1
  Mn  Mn4  1  0.00000000  0.00000000  0.39998700  1
  Mn  Mn5  1  0.33333333  0.66666667  0.46656767  1
  Mn  Mn6  1  0.66666667  0.33333333  0.53343233  1
  Mn  Mn7  1  0.00000000  0.00000000  0.60001300  1
  Mn  Mn8  1  0.66666667  0.33333333  0.73332033  1
  Mn  Mn9  1  0.00000000  0.00000000  0.79990100  1
  Mn  Mn10  1  0.33333333  0.66666667  0.86676567  1
  Mn  Mn11  1  0.66666667  0.33333333  0.93334633  1
  V  V12  1  0.00000000  0.00000000  0.00000000  1
  V  V13  1  0.66666667  0.33333333  0.33333333  1
  V  V14  1  0.33333333  0.66666667  0.66666667  1
  Se  Se15  1  0.00000000  0.00000000  0.30148800  1
  Se  Se16  1  0.66666667  0.33333333  0.23425433  1
  Se  Se17  1  0.33333333  0.66666667  0.16666667  1
  Se  Se18  1  0.66666667  0.33333333  0.03184533  1
  Se  Se19  1  0.00000000  0.00000000  0.09907900  1
  Se  Se20  1  0.66666667  0.33333333  0.63482133  1
  Se  Se21  1  0.33333333  0.66666667  0.56758767  1
  Se  Se22  1  1.00000000  1.00000000  0.50000000  1
  Se  Se23  1  0.33333333  0.66666667  0.36517867  1
  Se  Se24  1  0.66666667  0.33333333  0.43241233  1
  Se  Se25  1  0.33333333  0.66666667  0.96815467  1
  Se  Se26  1  0.00000000  0.00000000  0.90092100  1
  Se  Se27  1  0.66666667  0.33333333  0.83333333  1
  Se  Se28  1  0.00000000  0.00000000  0.69851200  1
  Se  Se29  1  0.33333333  0.66666667  0.76574567  1
