# generated using pymatgen
data_K3SnSb3
_symmetry_space_group_name_H-M   'P 1'
_cell_length_a   17.87455000
_cell_length_b   4.41720800
_cell_length_c   7.04304959
_cell_angle_alpha   90.00000000
_cell_angle_beta   95.74314439
_cell_angle_gamma   90.00000000
_symmetry_Int_Tables_number   1
_chemical_formula_structural   K3SnSb3
_chemical_formula_sum   'K6 Sn2 Sb6'
_cell_volume   553.29695809
_cell_formula_units_Z   2
loop_
 _symmetry_equiv_pos_site_id
 _symmetry_equiv_pos_as_xyz
  1  'x, y, z'
loop_
 _atom_site_type_symbol
 _atom_site_label
 _atom_site_symmetry_multiplicity
 _atom_site_fract_x
 _atom_site_fract_y
 _atom_site_fract_z
 _atom_site_occupancy
  K  K0  1  0.99745700  0.00000000  0.99904600  1
  K  K1  1  0.79408800  0.50000000  0.74949600  1
  K  K2  1  0.71009600  0.00000000  0.25208700  1
  K  K3  1  0.49745700  0.50000000  0.99904600  1
  K  K4  1  0.29408800  0.00000000  0.74949600  1
  K  K5  1  0.21009600  0.50000000  0.25208700  1
  Sn  Sn6  1  0.91566500  0.00000000  0.50794400  1
  Sn  Sn7  1  0.41566500  0.50000000  0.50794400  1
  Sb  Sb8  1  0.62757400  0.00000000  0.74707800  1
  Sb  Sb9  1  0.87444700  0.50000000  0.24819600  1
  Sb  Sb10  1  0.58067400  0.50000000  0.49615300  1
  Sb  Sb11  1  0.12757400  0.50000000  0.74707800  1
  Sb  Sb12  1  0.37444700  0.00000000  0.24819600  1
  Sb  Sb13  1  0.08067400  0.00000000  0.49615300  1
