# generated using pymatgen
data_Co2Si
_symmetry_space_group_name_H-M   'P 1'
_cell_length_a   3.70480194
_cell_length_b   4.85567766
_cell_length_c   6.96650294
_cell_angle_alpha   90.00000000
_cell_angle_beta   90.00000000
_cell_angle_gamma   90.00000000
_symmetry_Int_Tables_number   1
_chemical_formula_structural   Co2Si
_chemical_formula_sum   'Co8 Si4'
_cell_volume   125.32267864
_cell_formula_units_Z   4
loop_
 _symmetry_equiv_pos_site_id
 _symmetry_equiv_pos_as_xyz
  1  'x, y, z'
loop_
 _atom_site_type_symbol
 _atom_site_label
 _atom_site_symmetry_multiplicity
 _atom_site_fract_x
 _atom_site_fract_y
 _atom_site_fract_z
 _atom_site_occupancy
  Co  Co0  1  0.75000000  0.82748678  0.56358438  1
  Co  Co1  1  0.25000000  0.17251322  0.43641562  1
  Co  Co2  1  0.75000000  0.32748678  0.93641562  1
  Co  Co3  1  0.25000000  0.67251322  0.06358438  1
  Co  Co4  1  0.25000000  0.53581631  0.72139860  1
  Co  Co5  1  0.75000000  0.46418369  0.27860140  1
  Co  Co6  1  0.25000000  0.03581630  0.77860140  1
  Co  Co7  1  0.75000000  0.96418369  0.22139860  1
  Si  Si8  1  0.25000000  0.20088619  0.10367748  1
  Si  Si9  1  0.75000000  0.79911381  0.89632252  1
  Si  Si10  1  0.25000000  0.70088619  0.39632252  1
  Si  Si11  1  0.75000000  0.29911381  0.60367748  1
