# generated using pymatgen
data_Ti2AlGe3
_symmetry_space_group_name_H-M   'P 1'
_cell_length_a   3.67399604
_cell_length_b   14.05853938
_cell_length_c   3.67442294
_cell_angle_alpha   90.00000000
_cell_angle_beta   90.00000000
_cell_angle_gamma   90.00000000
_symmetry_Int_Tables_number   1
_chemical_formula_structural   Ti2AlGe3
_chemical_formula_sum   'Ti4 Al2 Ge6'
_cell_volume   189.78768545
_cell_formula_units_Z   2
loop_
 _symmetry_equiv_pos_site_id
 _symmetry_equiv_pos_as_xyz
  1  'x, y, z'
loop_
 _atom_site_type_symbol
 _atom_site_label
 _atom_site_symmetry_multiplicity
 _atom_site_fract_x
 _atom_site_fract_y
 _atom_site_fract_z
 _atom_site_occupancy
  Ti  Ti0  1  0.50000000  0.59860871  0.00000000  1
  Ti  Ti1  1  0.00000000  0.90099039  0.50000000  1
  Ti  Ti2  1  0.00000000  0.09860871  0.00000000  1
  Ti  Ti3  1  0.50000000  0.40099039  0.50000000  1
  Al  Al4  1  0.50000000  0.74873952  0.50000000  1
  Al  Al5  1  0.00000000  0.24873952  0.50000000  1
  Ge  Ge6  1  0.00000000  0.75144137  0.00000000  1
  Ge  Ge7  1  0.50000000  0.93356599  0.00000000  1
  Ge  Ge8  1  0.00000000  0.56665502  0.50000000  1
  Ge  Ge9  1  0.50000000  0.25144137  0.00000000  1
  Ge  Ge10  1  0.00000000  0.43356599  0.00000000  1
  Ge  Ge11  1  0.50000000  0.06665502  0.50000000  1
