# generated using pymatgen
data_Y2Ga2Fe15
_symmetry_space_group_name_H-M   'P 1'
_cell_length_a   8.45419790
_cell_length_b   8.45419790
_cell_length_c   12.49382400
_cell_angle_alpha   90.00000000
_cell_angle_beta   90.00000000
_cell_angle_gamma   120.00000000
_symmetry_Int_Tables_number   1
_chemical_formula_structural   Y2Ga2Fe15
_chemical_formula_sum   'Y6 Ga6 Fe45'
_cell_volume   773.34064232
_cell_formula_units_Z   3
loop_
 _symmetry_equiv_pos_site_id
 _symmetry_equiv_pos_as_xyz
  1  'x, y, z'
loop_
 _atom_site_type_symbol
 _atom_site_label
 _atom_site_symmetry_multiplicity
 _atom_site_fract_x
 _atom_site_fract_y
 _atom_site_fract_z
 _atom_site_occupancy
  Y  Y0  1  0.33333333  0.66666667  0.31941367  1
  Y  Y1  1  0.33333333  0.66666667  0.01391967  1
  Y  Y2  1  0.00000000  0.00000000  0.65274700  1
  Y  Y3  1  0.00000000  0.00000000  0.34725300  1
  Y  Y4  1  0.66666667  0.33333333  0.98608033  1
  Y  Y5  1  0.66666667  0.33333333  0.68058633  1
  Ga  Ga6  1  0.33333333  0.66666667  0.56383167  1
  Ga  Ga7  1  0.33333333  0.66666667  0.76950167  1
  Ga  Ga8  1  0.00000000  0.00000000  0.89716500  1
  Ga  Ga9  1  0.00000000  0.00000000  0.10283500  1
  Ga  Ga10  1  0.66666667  0.33333333  0.23049833  1
  Ga  Ga11  1  0.66666667  0.33333333  0.43616833  1
  Fe  Fe12  1  0.16666667  0.33333333  0.83333333  1
  Fe  Fe13  1  0.83333333  0.16666667  0.16666667  1
  Fe  Fe14  1  0.33333333  0.16666667  0.16666667  1
  Fe  Fe15  1  0.96603267  0.33333333  0.33333333  1
  Fe  Fe16  1  0.70063400  0.70063400  0.00000000  1
  Fe  Fe17  1  0.00000000  0.29936600  0.00000000  1
  Fe  Fe18  1  0.29936600  0.29936600  0.00000000  1
  Fe  Fe19  1  0.00000000  0.70063400  0.00000000  1
  Fe  Fe20  1  0.36730067  0.33333333  0.33333333  1
  Fe  Fe21  1  0.16710367  0.33420733  0.17458333  1
  Fe  Fe22  1  0.16710367  0.83289633  0.17458333  1
  Fe  Fe23  1  0.66579267  0.83289633  0.17458333  1
  Fe  Fe24  1  0.49956300  0.99912600  0.15875000  1
  Fe  Fe25  1  0.49956300  0.50043700  0.15875000  1
  Fe  Fe26  1  0.00087400  0.50043700  0.15875000  1
  Fe  Fe27  1  0.83333333  0.66666667  0.16666667  1
  Fe  Fe28  1  0.50000000  0.50000000  0.50000000  1
  Fe  Fe29  1  0.00000000  0.50000000  0.50000000  1
  Fe  Fe30  1  0.63269933  0.66666667  0.66666667  1
  Fe  Fe31  1  0.36730067  0.03396733  0.33333333  1
  Fe  Fe32  1  0.66666667  0.63269933  0.33333333  1
  Fe  Fe33  1  0.96603267  0.63269933  0.33333333  1
  Fe  Fe34  1  0.66666667  0.03396733  0.33333333  1
  Fe  Fe35  1  0.03396733  0.66666667  0.66666667  1
  Fe  Fe36  1  0.83377033  0.66754067  0.50791667  1
  Fe  Fe37  1  0.83377033  0.16622967  0.50791667  1
  Fe  Fe38  1  0.33245933  0.16622967  0.50791667  1
  Fe  Fe39  1  0.16622967  0.33245933  0.49208333  1
  Fe  Fe40  1  0.16622967  0.83377033  0.49208333  1
  Fe  Fe41  1  0.66754067  0.83377033  0.49208333  1
  Fe  Fe42  1  0.50000000  0.00000000  0.50000000  1
  Fe  Fe43  1  0.16666667  0.83333333  0.83333333  1
  Fe  Fe44  1  0.66666667  0.83333333  0.83333333  1
  Fe  Fe45  1  0.29936600  0.00000000  0.00000000  1
  Fe  Fe46  1  0.03396733  0.36730067  0.66666667  1
  Fe  Fe47  1  0.33333333  0.96603267  0.66666667  1
  Fe  Fe48  1  0.63269933  0.96603267  0.66666667  1
  Fe  Fe49  1  0.33333333  0.36730067  0.66666667  1
  Fe  Fe50  1  0.70063400  0.00000000  0.00000000  1
  Fe  Fe51  1  0.50043700  0.00087400  0.84125000  1
  Fe  Fe52  1  0.50043700  0.49956300  0.84125000  1
  Fe  Fe53  1  0.99912600  0.49956300  0.84125000  1
  Fe  Fe54  1  0.83289633  0.66579267  0.82541667  1
  Fe  Fe55  1  0.83289633  0.16710367  0.82541667  1
  Fe  Fe56  1  0.33420733  0.16710367  0.82541667  1
