# generated using pymatgen
data_K3Bi2
_symmetry_space_group_name_H-M   'P 1'
_cell_length_a   9.41200841
_cell_length_b   9.80955122
_cell_length_c   9.44876185
_cell_angle_alpha   90.00000000
_cell_angle_beta   105.99389670
_cell_angle_gamma   90.00000000
_symmetry_Int_Tables_number   1
_chemical_formula_structural   K3Bi2
_chemical_formula_sum   'K12 Bi8'
_cell_volume   838.61233998
_cell_formula_units_Z   4
loop_
 _symmetry_equiv_pos_site_id
 _symmetry_equiv_pos_as_xyz
  1  'x, y, z'
loop_
 _atom_site_type_symbol
 _atom_site_label
 _atom_site_symmetry_multiplicity
 _atom_site_fract_x
 _atom_site_fract_y
 _atom_site_fract_z
 _atom_site_occupancy
  K  K0  1  0.29195073  0.05252125  0.51620416  1
  K  K1  1  0.70804927  0.94747875  0.48379584  1
  K  K2  1  0.70804927  0.05252125  0.98379584  1
  K  K3  1  0.29195073  0.94747875  0.01620416  1
  K  K4  1  0.50000000  0.65625637  0.75000000  1
  K  K5  1  0.50000000  0.34374363  0.25000000  1
  K  K6  1  0.79195073  0.55252125  0.51620416  1
  K  K7  1  0.20804927  0.44747875  0.48379584  1
  K  K8  1  0.20804927  0.55252125  0.98379584  1
  K  K9  1  0.79195073  0.44747875  0.01620416  1
  K  K10  1  0.00000000  0.15625637  0.75000000  1
  K  K11  1  0.00000000  0.84374363  0.25000000  1
  Bi  Bi12  1  0.39710748  0.28334212  0.84505560  1
  Bi  Bi13  1  0.60289252  0.71665788  0.15494440  1
  Bi  Bi14  1  0.60289252  0.28334212  0.65494440  1
  Bi  Bi15  1  0.39710748  0.71665788  0.34505560  1
  Bi  Bi16  1  0.89710748  0.78334212  0.84505560  1
  Bi  Bi17  1  0.10289252  0.21665788  0.15494440  1
  Bi  Bi18  1  0.10289252  0.78334212  0.65494440  1
  Bi  Bi19  1  0.89710748  0.21665788  0.34505560  1
