# generated using pymatgen
data_Sb2Te3
_symmetry_space_group_name_H-M   'P 1'
_cell_length_a   15.78222729
_cell_length_b   4.25914038
_cell_length_c   10.51214026
_cell_angle_alpha   90.00000000
_cell_angle_beta   95.45792570
_cell_angle_gamma   90.00000000
_symmetry_Int_Tables_number   1
_chemical_formula_structural   Sb2Te3
_chemical_formula_sum   'Sb8 Te12'
_cell_volume   703.40906865
_cell_formula_units_Z   4
loop_
 _symmetry_equiv_pos_site_id
 _symmetry_equiv_pos_as_xyz
  1  'x, y, z'
loop_
 _atom_site_type_symbol
 _atom_site_label
 _atom_site_symmetry_multiplicity
 _atom_site_fract_x
 _atom_site_fract_y
 _atom_site_fract_z
 _atom_site_occupancy
  Sb  Sb0  1  0.97912189  0.00000000  0.21008663  1
  Sb  Sb1  1  0.52087811  0.50000000  0.78991337  1
  Sb  Sb2  1  0.73668937  0.50000000  0.17886808  1
  Sb  Sb3  1  0.76331063  0.00000000  0.82113192  1
  Sb  Sb4  1  0.47912189  0.50000000  0.21008663  1
  Sb  Sb5  1  0.02087811  0.00000000  0.78991337  1
  Sb  Sb6  1  0.23668937  0.00000000  0.17886808  1
  Sb  Sb7  1  0.26331063  0.50000000  0.82113192  1
  Te  Te8  1  0.83084364  0.00000000  0.34486992  1
  Te  Te9  1  0.66915636  0.50000000  0.65513008  1
  Te  Te10  1  0.93129794  0.50000000  0.64796981  1
  Te  Te11  1  0.56870206  0.00000000  0.35203019  1
  Te  Te12  1  0.63897604  0.00000000  0.99833116  1
  Te  Te13  1  0.86102396  0.50000000  0.00166884  1
  Te  Te14  1  0.33084364  0.50000000  0.34486992  1
  Te  Te15  1  0.16915636  0.00000000  0.65513008  1
  Te  Te16  1  0.43129794  0.00000000  0.64796981  1
  Te  Te17  1  0.06870206  0.50000000  0.35203019  1
  Te  Te18  1  0.13897604  0.50000000  0.99833116  1
  Te  Te19  1  0.36102396  0.00000000  0.00166884  1
