# generated using pymatgen
data_Zr3Fe2Sb3
_symmetry_space_group_name_H-M   'P 1'
_cell_length_a   6.84761299
_cell_length_b   4.30977200
_cell_length_c   22.07035474
_cell_angle_alpha   90.00000000
_cell_angle_beta   90.22032793
_cell_angle_gamma   90.00000000
_symmetry_Int_Tables_number   1
_chemical_formula_structural   Zr3Fe2Sb3
_chemical_formula_sum   'Zr12 Fe8 Sb12'
_cell_volume   651.32778475
_cell_formula_units_Z   4
loop_
 _symmetry_equiv_pos_site_id
 _symmetry_equiv_pos_as_xyz
  1  'x, y, z'
loop_
 _atom_site_type_symbol
 _atom_site_label
 _atom_site_symmetry_multiplicity
 _atom_site_fract_x
 _atom_site_fract_y
 _atom_site_fract_z
 _atom_site_occupancy
  Zr  Zr0  1  0.49909200  0.00000000  0.90788200  1
  Zr  Zr1  1  0.49365400  0.00000000  0.57621300  1
  Zr  Zr2  1  0.49807900  0.00000000  0.24092100  1
  Zr  Zr3  1  0.99436100  0.00000000  0.92193300  1
  Zr  Zr4  1  0.99373400  0.00000000  0.59333600  1
  Zr  Zr5  1  0.99134300  0.00000000  0.25816100  1
  Zr  Zr6  1  0.50116800  0.50000000  0.75912400  1
  Zr  Zr7  1  0.49490300  0.50000000  0.42732500  1
  Zr  Zr8  1  0.49261600  0.50000000  0.09242500  1
  Zr  Zr9  1  0.00199200  0.50000000  0.74249500  1
  Zr  Zr10  1  0.00944600  0.50000000  0.40731000  1
  Zr  Zr11  1  0.00944200  0.50000000  0.07314600  1
  Fe  Fe12  1  0.15196100  0.00000000  0.47401600  1
  Fe  Fe13  1  0.15033900  0.00000000  0.14063000  1
  Fe  Fe14  1  0.35389300  0.50000000  0.97596700  1
  Fe  Fe15  1  0.35534500  0.50000000  0.64264600  1
  Fe  Fe16  1  0.35597900  0.50000000  0.31006500  1
  Fe  Fe17  1  0.85371400  0.50000000  0.85838900  1
  Fe  Fe18  1  0.85082700  0.50000000  0.52431100  1
  Fe  Fe19  1  0.85185000  0.50000000  0.19129000  1
  Sb  Sb20  1  0.76480900  0.00000000  0.80018900  1
  Sb  Sb21  1  0.76434000  0.00000000  0.46605600  1
  Sb  Sb22  1  0.76344600  0.00000000  0.13157400  1
  Sb  Sb23  1  0.26552200  0.00000000  0.70006200  1
  Sb  Sb24  1  0.27022200  0.00000000  0.36253400  1
  Sb  Sb25  1  0.26829300  0.00000000  0.02825000  1
  Sb  Sb26  1  0.23299100  0.50000000  0.86155300  1
  Sb  Sb27  1  0.22861900  0.50000000  0.53276600  1
  Sb  Sb28  1  0.23061500  0.50000000  0.19945000  1
  Sb  Sb29  1  0.72805600  0.50000000  0.97190800  1
  Sb  Sb30  1  0.73011400  0.50000000  0.63933700  1
  Sb  Sb31  1  0.72763100  0.50000000  0.30593700  1
