# generated using pymatgen
data_GePt3
_symmetry_space_group_name_H-M   'P 1'
_cell_length_a   7.83020547
_cell_length_b   7.82476499
_cell_length_c   5.58826303
_cell_angle_alpha   90.00000000
_cell_angle_beta   134.35970065
_cell_angle_gamma   90.00000000
_symmetry_Int_Tables_number   1
_chemical_formula_structural   GePt3
_chemical_formula_sum   'Ge4 Pt12'
_cell_volume   244.79686352
_cell_formula_units_Z   4
loop_
 _symmetry_equiv_pos_site_id
 _symmetry_equiv_pos_as_xyz
  1  'x, y, z'
loop_
 _atom_site_type_symbol
 _atom_site_label
 _atom_site_symmetry_multiplicity
 _atom_site_fract_x
 _atom_site_fract_y
 _atom_site_fract_z
 _atom_site_occupancy
  Ge  Ge0  1  0.24871048  0.50000000  0.49988142  1
  Ge  Ge1  1  0.75128952  0.50000000  0.50011858  1
  Ge  Ge2  1  0.74871048  0.00000000  0.49988142  1
  Ge  Ge3  1  0.25128952  0.00000000  0.50011858  1
  Pt  Pt4  1  0.00000000  0.25079966  0.50000000  1
  Pt  Pt5  1  0.00000000  0.74920034  0.50000000  1
  Pt  Pt6  1  0.80719865  0.50000000  0.99773250  1
  Pt  Pt7  1  0.19280135  0.50000000  0.00226750  1
  Pt  Pt8  1  0.00000000  0.80842470  0.00000000  1
  Pt  Pt9  1  0.00000000  0.19157530  0.00000000  1
  Pt  Pt10  1  0.50000000  0.75079966  0.50000000  1
  Pt  Pt11  1  0.50000000  0.24920034  0.50000000  1
  Pt  Pt12  1  0.30719865  0.00000000  0.99773250  1
  Pt  Pt13  1  0.69280135  0.00000000  0.00226750  1
  Pt  Pt14  1  0.50000000  0.30842470  0.00000000  1
  Pt  Pt15  1  0.50000000  0.69157530  0.00000000  1
