# generated using pymatgen
data_ZrTaFe4
_symmetry_space_group_name_H-M   'P 1'
_cell_length_a   4.91439986
_cell_length_b   4.91439986
_cell_length_c   7.98884800
_cell_angle_alpha   90.00000000
_cell_angle_beta   90.00000000
_cell_angle_gamma   120.00000000
_symmetry_Int_Tables_number   1
_chemical_formula_structural   ZrTaFe4
_chemical_formula_sum   'Zr2 Ta2 Fe8'
_cell_volume   167.09204296
_cell_formula_units_Z   2
loop_
 _symmetry_equiv_pos_site_id
 _symmetry_equiv_pos_as_xyz
  1  'x, y, z'
loop_
 _atom_site_type_symbol
 _atom_site_label
 _atom_site_symmetry_multiplicity
 _atom_site_fract_x
 _atom_site_fract_y
 _atom_site_fract_z
 _atom_site_occupancy
  Zr  Zr0  1  0.66666667  0.33333333  0.93375900  1
  Zr  Zr1  1  0.33333333  0.66666667  0.06624100  1
  Ta  Ta2  1  0.33333333  0.66666667  0.44305500  1
  Ta  Ta3  1  0.66666667  0.33333333  0.55694500  1
  Fe  Fe4  1  0.00000000  0.00000000  0.50000000  1
  Fe  Fe5  1  0.00000000  0.00000000  0.00000000  1
  Fe  Fe6  1  0.83209450  0.16790550  0.25743700  1
  Fe  Fe7  1  0.83209450  0.66418900  0.25743700  1
  Fe  Fe8  1  0.33581100  0.16790550  0.25743700  1
  Fe  Fe9  1  0.16790550  0.83209450  0.74256300  1
  Fe  Fe10  1  0.16790550  0.33581100  0.74256300  1
  Fe  Fe11  1  0.66418900  0.83209450  0.74256300  1
