# generated using pymatgen
data_TaTiFe4
_symmetry_space_group_name_H-M   'P 1'
_cell_length_a   4.72192215
_cell_length_b   4.72192215
_cell_length_c   7.81197400
_cell_angle_alpha   90.00000000
_cell_angle_beta   90.00000000
_cell_angle_gamma   120.00000000
_symmetry_Int_Tables_number   1
_chemical_formula_structural   TaTiFe4
_chemical_formula_sum   'Ta2 Ti2 Fe8'
_cell_volume   150.84435662
_cell_formula_units_Z   2
loop_
 _symmetry_equiv_pos_site_id
 _symmetry_equiv_pos_as_xyz
  1  'x, y, z'
loop_
 _atom_site_type_symbol
 _atom_site_label
 _atom_site_symmetry_multiplicity
 _atom_site_fract_x
 _atom_site_fract_y
 _atom_site_fract_z
 _atom_site_occupancy
  Ta  Ta0  1  0.33333333  0.66666667  0.42975300  1
  Ta  Ta1  1  0.66666667  0.33333333  0.57024700  1
  Ti  Ti2  1  0.66666667  0.33333333  0.93770500  1
  Ti  Ti3  1  0.33333333  0.66666667  0.06229500  1
  Fe  Fe4  1  0.00000000  0.00000000  0.50000000  1
  Fe  Fe5  1  0.00000000  0.00000000  0.00000000  1
  Fe  Fe6  1  0.82972133  0.17027867  0.24825500  1
  Fe  Fe7  1  0.82972133  0.65944267  0.24825500  1
  Fe  Fe8  1  0.34055733  0.17027867  0.24825500  1
  Fe  Fe9  1  0.17027867  0.82972133  0.75174500  1
  Fe  Fe10  1  0.17027867  0.34055733  0.75174500  1
  Fe  Fe11  1  0.65944267  0.82972133  0.75174500  1
