# generated using pymatgen
data_RbFe2Te3
_symmetry_space_group_name_H-M   'P 1'
_cell_length_a   10.25882600
_cell_length_b   13.39389800
_cell_length_c   5.61440900
_cell_angle_alpha   90.00000000
_cell_angle_beta   90.00000000
_cell_angle_gamma   90.00000000
_symmetry_Int_Tables_number   1
_chemical_formula_structural   RbFe2Te3
_chemical_formula_sum   'Rb4 Fe8 Te12'
_cell_volume   771.45162493
_cell_formula_units_Z   4
loop_
 _symmetry_equiv_pos_site_id
 _symmetry_equiv_pos_as_xyz
  1  'x, y, z'
loop_
 _atom_site_type_symbol
 _atom_site_label
 _atom_site_symmetry_multiplicity
 _atom_site_fract_x
 _atom_site_fract_y
 _atom_site_fract_z
 _atom_site_occupancy
  Rb  Rb0  1  0.50000000  0.84780400  0.25000000  1
  Rb  Rb1  1  0.50000000  0.15219600  0.75000000  1
  Rb  Rb2  1  0.00000000  0.34780400  0.25000000  1
  Rb  Rb3  1  0.00000000  0.65219600  0.75000000  1
  Fe  Fe4  1  0.87608000  0.00000000  0.00000000  1
  Fe  Fe5  1  0.12392000  0.00000000  0.50000000  1
  Fe  Fe6  1  0.87608000  0.00000000  0.50000000  1
  Fe  Fe7  1  0.12392000  0.00000000  0.00000000  1
  Fe  Fe8  1  0.37608000  0.50000000  0.00000000  1
  Fe  Fe9  1  0.62392000  0.50000000  0.50000000  1
  Fe  Fe10  1  0.37608000  0.50000000  0.50000000  1
  Fe  Fe11  1  0.62392000  0.50000000  0.00000000  1
  Te  Te12  1  0.50000000  0.63372800  0.75000000  1
  Te  Te13  1  0.50000000  0.36627200  0.25000000  1
  Te  Te14  1  0.74128950  0.87814150  0.75000000  1
  Te  Te15  1  0.25871050  0.12185850  0.25000000  1
  Te  Te16  1  0.74128950  0.12185850  0.25000000  1
  Te  Te17  1  0.25871050  0.87814150  0.75000000  1
  Te  Te18  1  0.00000000  0.13372800  0.75000000  1
  Te  Te19  1  0.00000000  0.86627200  0.25000000  1
  Te  Te20  1  0.24128950  0.37814150  0.75000000  1
  Te  Te21  1  0.75871050  0.62185850  0.25000000  1
  Te  Te22  1  0.24128950  0.62185850  0.25000000  1
  Te  Te23  1  0.75871050  0.37814150  0.75000000  1
