# generated using pymatgen
data_MnZn2N3
_symmetry_space_group_name_H-M   'P 1'
_cell_length_a   5.49516146
_cell_length_b   9.46713378
_cell_length_c   5.18543185
_cell_angle_alpha   90.00000000
_cell_angle_beta   90.00000000
_cell_angle_gamma   90.00000000
_symmetry_Int_Tables_number   1
_chemical_formula_structural   MnZn2N3
_chemical_formula_sum   'Mn4 Zn8 N12'
_cell_volume   269.76394396
_cell_formula_units_Z   4
loop_
 _symmetry_equiv_pos_site_id
 _symmetry_equiv_pos_as_xyz
  1  'x, y, z'
loop_
 _atom_site_type_symbol
 _atom_site_label
 _atom_site_symmetry_multiplicity
 _atom_site_fract_x
 _atom_site_fract_y
 _atom_site_fract_z
 _atom_site_occupancy
  Mn  Mn0  1  0.16491414  0.00000000  0.03941504  1
  Mn  Mn1  1  0.83508586  0.00000000  0.53941504  1
  Mn  Mn2  1  0.66491414  0.50000000  0.03941504  1
  Mn  Mn3  1  0.33508586  0.50000000  0.53941504  1
  Zn  Zn4  1  0.33310401  0.16465356  0.52705771  1
  Zn  Zn5  1  0.33310401  0.83534644  0.52705771  1
  Zn  Zn6  1  0.66689599  0.83534644  0.02705771  1
  Zn  Zn7  1  0.66689599  0.16465356  0.02705771  1
  Zn  Zn8  1  0.83310401  0.66465356  0.52705771  1
  Zn  Zn9  1  0.83310401  0.33534644  0.52705771  1
  Zn  Zn10  1  0.16689599  0.33534644  0.02705771  1
  Zn  Zn11  1  0.16689599  0.66465356  0.02705771  1
  N  N12  1  0.31761872  0.15247859  0.13871806  1
  N  N13  1  0.31761872  0.84752141  0.13871806  1
  N  N14  1  0.68238128  0.84752141  0.63871806  1
  N  N15  1  0.68238128  0.15247859  0.63871806  1
  N  N16  1  0.13991940  0.00000000  0.68456905  1
  N  N17  1  0.86008060  0.00000000  0.18456905  1
  N  N18  1  0.81761872  0.65247859  0.13871806  1
  N  N19  1  0.81761872  0.34752141  0.13871806  1
  N  N20  1  0.18238128  0.34752141  0.63871806  1
  N  N21  1  0.18238128  0.65247859  0.63871806  1
  N  N22  1  0.63991940  0.50000000  0.68456905  1
  N  N23  1  0.36008060  0.50000000  0.18456905  1
