# generated using pymatgen
data_K2Te2Pd
_symmetry_space_group_name_H-M   'P 1'
_cell_length_a   4.01319080
_cell_length_b   7.95448482
_cell_length_c   10.30161194
_cell_angle_alpha   90.00000000
_cell_angle_beta   90.00000000
_cell_angle_gamma   90.00000000
_symmetry_Int_Tables_number   1
_chemical_formula_structural   K2Te2Pd
_chemical_formula_sum   'K4 Te4 Pd2'
_cell_volume   328.85697032
_cell_formula_units_Z   2
loop_
 _symmetry_equiv_pos_site_id
 _symmetry_equiv_pos_as_xyz
  1  'x, y, z'
loop_
 _atom_site_type_symbol
 _atom_site_label
 _atom_site_symmetry_multiplicity
 _atom_site_fract_x
 _atom_site_fract_y
 _atom_site_fract_z
 _atom_site_occupancy
  K  K0  1  0.00000000  0.50000000  0.79905158  1
  K  K1  1  0.00000000  0.50000000  0.20094842  1
  K  K2  1  0.50000000  0.00000000  0.29905158  1
  K  K3  1  0.50000000  0.00000000  0.70094842  1
  Te  Te4  1  0.50000000  0.77921615  0.00000000  1
  Te  Te5  1  0.50000000  0.22078385  0.00000000  1
  Te  Te6  1  0.00000000  0.27921615  0.50000000  1
  Te  Te7  1  0.00000000  0.72078385  0.50000000  1
  Pd  Pd8  1  0.00000000  0.00000000  0.00000000  1
  Pd  Pd9  1  0.50000000  0.50000000  0.50000000  1
