# generated using pymatgen
data_Na6GaAs3
_symmetry_space_group_name_H-M   'P 1'
_cell_length_a   8.35064758
_cell_length_b   8.40471019
_cell_length_c   16.36882618
_cell_angle_alpha   95.85539098
_cell_angle_beta   94.11996096
_cell_angle_gamma   119.60526826
_symmetry_Int_Tables_number   1
_chemical_formula_structural   Na6GaAs3
_chemical_formula_sum   'Na24 Ga4 As12'
_cell_volume   983.67422879
_cell_formula_units_Z   4
loop_
 _symmetry_equiv_pos_site_id
 _symmetry_equiv_pos_as_xyz
  1  'x, y, z'
loop_
 _atom_site_type_symbol
 _atom_site_label
 _atom_site_symmetry_multiplicity
 _atom_site_fract_x
 _atom_site_fract_y
 _atom_site_fract_z
 _atom_site_occupancy
  Na  Na0  1  0.16148300  0.97897500  0.92903800  1
  Na  Na1  1  0.03065300  0.85920100  0.58016600  1
  Na  Na2  1  0.43418000  0.92124000  0.81151400  1
  Na  Na3  1  0.76612100  0.95804300  0.69896900  1
  Na  Na4  1  0.14533500  0.63906600  0.46919400  1
  Na  Na5  1  0.55407200  0.78832900  0.31082700  1
  Na  Na6  1  0.05246900  0.56069400  0.69815900  1
  Na  Na7  1  0.64150400  0.79980700  0.49951300  1
  Na  Na8  1  0.49141000  0.68958000  0.93754000  1
  Na  Na9  1  0.84265000  0.71092200  0.19953300  1
  Na  Na10  1  0.15769700  0.35485000  0.99828300  1
  Na  Na11  1  0.25461500  0.37220000  0.20361300  1
  Na  Na12  1  0.74851400  0.62457500  0.79741800  1
  Na  Na13  1  0.84173100  0.64547700  0.00241100  1
  Na  Na14  1  0.15412800  0.29378500  0.80248700  1
  Na  Na15  1  0.50800900  0.31200900  0.06314000  1
  Na  Na16  1  0.34446500  0.18376700  0.49516100  1
  Na  Na17  1  0.94617000  0.44176900  0.29295300  1
  Na  Na18  1  0.42752700  0.21246700  0.69438900  1
  Na  Na19  1  0.23899200  0.02848800  0.30516800  1
  Na  Na20  1  0.72094900  0.21060700  0.55953300  1
  Na  Na21  1  0.56611300  0.07843600  0.18751200  1
  Na  Na22  1  0.96832000  0.15208800  0.42231100  1
  Na  Na23  1  0.83921100  0.02115900  0.07171000  1
  Ga  Ga24  1  0.20128800  0.70451900  0.09118400  1
  Ga  Ga25  1  0.36605900  0.52982200  0.59555400  1
  Ga  Ga26  1  0.64586400  0.47076600  0.40804100  1
  Ga  Ga27  1  0.79873900  0.29618800  0.90791300  1
  As  As28  1  0.17978100  0.99339200  0.12097900  1
  As  As29  1  0.38721000  0.84577800  0.62701500  1
  As  As30  1  0.10255000  0.60388100  0.89519400  1
  As  As31  1  0.49709000  0.69231800  0.12069300  1
  As  As32  1  0.91802000  0.77149200  0.38526500  1
  As  As33  1  0.32848300  0.45755600  0.39754800  1
  As  As34  1  0.67660200  0.53506400  0.59994600  1
  As  As35  1  0.08442800  0.23475100  0.61789800  1
  As  As36  1  0.50173100  0.30763800  0.88014900  1
  As  As37  1  0.89628400  0.39618400  0.10255800  1
  As  As38  1  0.62662100  0.16385300  0.37388000  1
  As  As39  1  0.82023400  0.00616500  0.88056000  1
