# generated using pymatgen
data_Ga7Pd3
_symmetry_space_group_name_H-M   'P 1'
_cell_length_a   8.78857404
_cell_length_b   8.78857404
_cell_length_c   8.78857404
_cell_angle_alpha   90.00000000
_cell_angle_beta   90.00000000
_cell_angle_gamma   90.00000000
_symmetry_Int_Tables_number   1
_chemical_formula_structural   Ga7Pd3
_chemical_formula_sum   'Ga28 Pd12'
_cell_volume   678.82096607
_cell_formula_units_Z   4
loop_
 _symmetry_equiv_pos_site_id
 _symmetry_equiv_pos_as_xyz
  1  'x, y, z'
loop_
 _atom_site_type_symbol
 _atom_site_label
 _atom_site_symmetry_multiplicity
 _atom_site_fract_x
 _atom_site_fract_y
 _atom_site_fract_z
 _atom_site_occupancy
  Ga  Ga0  1  0.50000000  0.00000000  0.75000000  1
  Ga  Ga1  1  0.50000000  0.75000000  0.00000000  1
  Ga  Ga2  1  0.75000000  0.00000000  0.50000000  1
  Ga  Ga3  1  0.00000000  0.75000000  0.50000000  1
  Ga  Ga4  1  0.00000000  0.50000000  0.75000000  1
  Ga  Ga5  1  0.75000000  0.50000000  0.00000000  1
  Ga  Ga6  1  0.66369630  0.66369630  0.33630370  1
  Ga  Ga7  1  0.66369630  0.33630370  0.66369630  1
  Ga  Ga8  1  0.33630370  0.66369630  0.66369630  1
  Ga  Ga9  1  0.83630370  0.83630370  0.83630370  1
  Ga  Ga10  1  0.83630370  0.83630370  0.16369630  1
  Ga  Ga11  1  0.83630370  0.16369630  0.83630370  1
  Ga  Ga12  1  0.16369630  0.83630370  0.83630370  1
  Ga  Ga13  1  0.66369630  0.66369630  0.66369630  1
  Ga  Ga14  1  0.00000000  0.50000000  0.25000000  1
  Ga  Ga15  1  0.00000000  0.25000000  0.50000000  1
  Ga  Ga16  1  0.25000000  0.50000000  0.00000000  1
  Ga  Ga17  1  0.50000000  0.25000000  0.00000000  1
  Ga  Ga18  1  0.50000000  0.00000000  0.25000000  1
  Ga  Ga19  1  0.25000000  0.00000000  0.50000000  1
  Ga  Ga20  1  0.16369630  0.16369630  0.83630370  1
  Ga  Ga21  1  0.16369630  0.83630370  0.16369630  1
  Ga  Ga22  1  0.83630370  0.16369630  0.16369630  1
  Ga  Ga23  1  0.33630370  0.33630370  0.33630370  1
  Ga  Ga24  1  0.33630370  0.33630370  0.66369630  1
  Ga  Ga25  1  0.33630370  0.66369630  0.33630370  1
  Ga  Ga26  1  0.66369630  0.33630370  0.33630370  1
  Ga  Ga27  1  0.16369630  0.16369630  0.16369630  1
  Pd  Pd28  1  0.00000000  0.00000000  0.65620806  1
  Pd  Pd29  1  0.00000000  0.34379194  0.00000000  1
  Pd  Pd30  1  0.34379194  0.00000000  0.00000000  1
  Pd  Pd31  1  0.00000000  0.00000000  0.34379194  1
  Pd  Pd32  1  0.00000000  0.65620806  0.00000000  1
  Pd  Pd33  1  0.65620806  0.00000000  0.00000000  1
  Pd  Pd34  1  0.50000000  0.50000000  0.15620806  1
  Pd  Pd35  1  0.50000000  0.84379194  0.50000000  1
  Pd  Pd36  1  0.84379194  0.50000000  0.50000000  1
  Pd  Pd37  1  0.50000000  0.50000000  0.84379194  1
  Pd  Pd38  1  0.50000000  0.15620806  0.50000000  1
  Pd  Pd39  1  0.15620806  0.50000000  0.50000000  1
