# generated using pymatgen
data_AlSiMo
_symmetry_space_group_name_H-M   'P 1'
_cell_length_a   4.72917883
_cell_length_b   4.72917883
_cell_length_c   6.57743544
_cell_angle_alpha   90.00000000
_cell_angle_beta   90.00000000
_cell_angle_gamma   120.00000000
_symmetry_Int_Tables_number   1
_chemical_formula_structural   AlSiMo
_chemical_formula_sum   'Al3 Si3 Mo3'
_cell_volume   127.39685291
_cell_formula_units_Z   3
loop_
 _symmetry_equiv_pos_site_id
 _symmetry_equiv_pos_as_xyz
  1  'x, y, z'
loop_
 _atom_site_type_symbol
 _atom_site_label
 _atom_site_symmetry_multiplicity
 _atom_site_fract_x
 _atom_site_fract_y
 _atom_site_fract_z
 _atom_site_occupancy
  Al  Al0  1  0.66597427  0.83298713  0.50000000  1
  Al  Al1  1  0.16701287  0.83298713  0.16666667  1
  Al  Al2  1  0.16701287  0.33402573  0.83333333  1
  Si  Si3  1  0.01104338  0.50552169  0.50000000  1
  Si  Si4  1  0.49447831  0.50552169  0.16666667  1
  Si  Si5  1  0.49447831  0.98895662  0.83333333  1
  Mo  Mo6  1  0.34503082  0.17251541  0.50000000  1
  Mo  Mo7  1  0.82748459  0.17251541  0.16666667  1
  Mo  Mo8  1  0.82748459  0.65496918  0.83333333  1
