# generated using pymatgen
data_Na3In2Bi3
_symmetry_space_group_name_H-M   'P 1'
_cell_length_a   8.22839800
_cell_length_b   4.72645500
_cell_length_c   27.49483740
_cell_angle_alpha   90.00000000
_cell_angle_beta   90.20984242
_cell_angle_gamma   90.00000000
_symmetry_Int_Tables_number   1
_chemical_formula_structural   Na3In2Bi3
_chemical_formula_sum   'Na12 In8 Bi12'
_cell_volume   1069.29875291
_cell_formula_units_Z   4
loop_
 _symmetry_equiv_pos_site_id
 _symmetry_equiv_pos_as_xyz
  1  'x, y, z'
loop_
 _atom_site_type_symbol
 _atom_site_label
 _atom_site_symmetry_multiplicity
 _atom_site_fract_x
 _atom_site_fract_y
 _atom_site_fract_z
 _atom_site_occupancy
  Na  Na0  1  0.52386700  0.50000000  0.89131500  1
  Na  Na1  1  0.52462800  0.50000000  0.56121500  1
  Na  Na2  1  0.52205400  0.50000000  0.22584000  1
  Na  Na3  1  0.03546600  0.50000000  0.93756100  1
  Na  Na4  1  0.03094400  0.50000000  0.60764100  1
  Na  Na5  1  0.03630500  0.50000000  0.27268100  1
  Na  Na6  1  0.47715400  0.00000000  0.77169800  1
  Na  Na7  1  0.47080800  0.00000000  0.44280900  1
  Na  Na8  1  0.47018500  0.00000000  0.10846400  1
  Na  Na9  1  0.97856400  0.00000000  0.72653400  1
  Na  Na10  1  0.97876400  0.00000000  0.39703200  1
  Na  Na11  1  0.97812500  0.00000000  0.06259900  1
  In  In12  1  0.63834800  0.50000000  0.35781900  1
  In  In13  1  0.63385900  0.50000000  0.02334400  1
  In  In14  1  0.86869800  0.00000000  0.85379800  1
  In  In15  1  0.86495300  0.00000000  0.52704800  1
  In  In16  1  0.87699700  0.00000000  0.18839700  1
  In  In17  1  0.34048600  0.00000000  0.97346400  1
  In  In18  1  0.35413900  0.00000000  0.64117000  1
  In  In19  1  0.34126200  0.00000000  0.30769500  1
  Bi  Bi20  1  0.28124000  0.50000000  0.70667400  1
  Bi  Bi21  1  0.26509000  0.50000000  0.37475800  1
  Bi  Bi22  1  0.26481600  0.50000000  0.04142100  1
  Bi  Bi23  1  0.76971700  0.50000000  0.79346700  1
  Bi  Bi24  1  0.77480700  0.50000000  0.46173400  1
  Bi  Bi25  1  0.76464000  0.50000000  0.12937000  1
  Bi  Bi26  1  0.73841300  0.00000000  0.96286600  1
  Bi  Bi27  1  0.72605700  0.00000000  0.62769300  1
  Bi  Bi28  1  0.73670500  0.00000000  0.29507200  1
  Bi  Bi29  1  0.23250700  0.00000000  0.86901100  1
  Bi  Bi30  1  0.22937700  0.00000000  0.53664900  1
  Bi  Bi31  1  0.23662500  0.00000000  0.20342800  1
