# generated using pymatgen
data_AlGaSb2
_symmetry_space_group_name_H-M   'P 1'
_cell_length_a   4.35756274
_cell_length_b   4.35756274
_cell_length_c   21.32706769
_cell_angle_alpha   90.00000000
_cell_angle_beta   90.00000000
_cell_angle_gamma   120.00000000
_symmetry_Int_Tables_number   1
_chemical_formula_structural   AlGaSb2
_chemical_formula_sum   'Al3 Ga3 Sb6'
_cell_volume   350.71074818
_cell_formula_units_Z   3
loop_
 _symmetry_equiv_pos_site_id
 _symmetry_equiv_pos_as_xyz
  1  'x, y, z'
loop_
 _atom_site_type_symbol
 _atom_site_label
 _atom_site_symmetry_multiplicity
 _atom_site_fract_x
 _atom_site_fract_y
 _atom_site_fract_z
 _atom_site_occupancy
  Al  Al0  1  0.66666667  0.33333333  0.33315436  1
  Al  Al1  1  0.33333333  0.66666667  0.66648770  1
  Al  Al2  1  0.00000000  0.00000000  0.99982103  1
  Ga  Ga3  1  0.33333333  0.66666667  0.16670859  1
  Ga  Ga4  1  0.00000000  0.00000000  0.50004192  1
  Ga  Ga5  1  0.66666667  0.33333333  0.83337525  1
  Sb  Sb6  1  0.00000000  0.00000000  0.12533778  1
  Sb  Sb7  1  0.33333333  0.66666667  0.29146594  1
  Sb  Sb8  1  0.66666667  0.33333333  0.45867111  1
  Sb  Sb9  1  0.00000000  0.00000000  0.62479927  1
  Sb  Sb10  1  0.33333333  0.66666667  0.79200445  1
  Sb  Sb11  1  0.66666667  0.33333333  0.95813260  1
