# generated using pymatgen
data_Zn(GaS2)2
_symmetry_space_group_name_H-M   'P 1'
_cell_length_a   12.80371116
_cell_length_b   22.71958333
_cell_length_c   6.39455476
_cell_angle_alpha   90.00000000
_cell_angle_beta   107.48282324
_cell_angle_gamma   90.00000000
_symmetry_Int_Tables_number   1
_chemical_formula_structural   Zn(GaS2)2
_chemical_formula_sum   'Zn12 Ga24 S48'
_cell_volume   1774.21837406
_cell_formula_units_Z   12
loop_
 _symmetry_equiv_pos_site_id
 _symmetry_equiv_pos_as_xyz
  1  'x, y, z'
loop_
 _atom_site_type_symbol
 _atom_site_label
 _atom_site_symmetry_multiplicity
 _atom_site_fract_x
 _atom_site_fract_y
 _atom_site_fract_z
 _atom_site_occupancy
  Zn  Zn0  1  0.50000000  0.37448000  0.25000000  1
  Zn  Zn1  1  0.00000000  0.12552000  0.75000000  1
  Zn  Zn2  1  0.00000000  0.04354000  0.25000000  1
  Zn  Zn3  1  0.50000000  0.45646000  0.75000000  1
  Zn  Zn4  1  0.00000000  0.21497700  0.25000000  1
  Zn  Zn5  1  0.50000000  0.28502300  0.75000000  1
  Zn  Zn6  1  0.00000000  0.87448000  0.25000000  1
  Zn  Zn7  1  0.50000000  0.62552000  0.75000000  1
  Zn  Zn8  1  0.50000000  0.54354000  0.25000000  1
  Zn  Zn9  1  0.00000000  0.95646000  0.75000000  1
  Zn  Zn10  1  0.50000000  0.71497700  0.25000000  1
  Zn  Zn11  1  0.00000000  0.78502300  0.75000000  1
  Ga  Ga12  1  0.21298000  0.37322500  0.37354800  1
  Ga  Ga13  1  0.78702000  0.37322500  0.12645200  1
  Ga  Ga14  1  0.28702000  0.12677500  0.62645200  1
  Ga  Ga15  1  0.71298000  0.12677500  0.87354800  1
  Ga  Ga16  1  0.71651500  0.04075600  0.37698700  1
  Ga  Ga17  1  0.28348500  0.04075600  0.12301300  1
  Ga  Ga18  1  0.78348500  0.45924400  0.62301300  1
  Ga  Ga19  1  0.21651500  0.45924400  0.87698700  1
  Ga  Ga20  1  0.68795900  0.20253100  0.34636500  1
  Ga  Ga21  1  0.31204100  0.20253100  0.15363500  1
  Ga  Ga22  1  0.81204100  0.29746900  0.65363500  1
  Ga  Ga23  1  0.18795900  0.29746900  0.84636500  1
  Ga  Ga24  1  0.71298000  0.87322500  0.37354800  1
  Ga  Ga25  1  0.28702000  0.87322500  0.12645200  1
  Ga  Ga26  1  0.78702000  0.62677500  0.62645200  1
  Ga  Ga27  1  0.21298000  0.62677500  0.87354800  1
  Ga  Ga28  1  0.21651500  0.54075600  0.37698700  1
  Ga  Ga29  1  0.78348500  0.54075600  0.12301300  1
  Ga  Ga30  1  0.28348500  0.95924400  0.62301300  1
  Ga  Ga31  1  0.71651500  0.95924400  0.87698700  1
  Ga  Ga32  1  0.18795900  0.70253100  0.34636500  1
  Ga  Ga33  1  0.81204100  0.70253100  0.15363500  1
  Ga  Ga34  1  0.31204100  0.79746900  0.65363500  1
  Ga  Ga35  1  0.68795900  0.79746900  0.84636500  1
  S  S36  1  0.39832900  0.36811500  0.51425800  1
  S  S37  1  0.60167100  0.36811500  0.98574200  1
  S  S38  1  0.10167100  0.13188500  0.48574200  1
  S  S39  1  0.89832900  0.13188500  0.01425800  1
  S  S40  1  0.89768250  0.04320950  0.51440100  1
  S  S41  1  0.10231750  0.04320950  0.98559900  1
  S  S42  1  0.60231750  0.45679050  0.48559900  1
  S  S43  1  0.39768250  0.45679050  0.01440100  1
  S  S44  1  0.87474450  0.21626550  0.50493500  1
  S  S45  1  0.12525550  0.21626550  0.99506500  1
  S  S46  1  0.62525550  0.28373450  0.49506500  1
  S  S47  1  0.37474450  0.28373450  0.00493500  1
  S  S48  1  0.62971950  0.11862950  0.49464000  1
  S  S49  1  0.37028050  0.11862950  0.00536000  1
  S  S50  1  0.87028050  0.38137050  0.50536000  1
  S  S51  1  0.12971950  0.38137050  0.99464000  1
  S  S52  1  0.13970700  0.45862900  0.49533400  1
  S  S53  1  0.86029300  0.45862900  0.00466600  1
  S  S54  1  0.36029300  0.04137100  0.50466600  1
  S  S55  1  0.63970700  0.04137100  0.99533400  1
  S  S56  1  0.11949950  0.29960450  0.48009200  1
  S  S57  1  0.88050050  0.29960450  0.01990800  1
  S  S58  1  0.38050050  0.20039550  0.51990800  1
  S  S59  1  0.61949950  0.20039550  0.98009200  1
  S  S60  1  0.89832900  0.86811500  0.51425800  1
  S  S61  1  0.10167100  0.86811500  0.98574200  1
  S  S62  1  0.60167100  0.63188500  0.48574200  1
  S  S63  1  0.39832900  0.63188500  0.01425800  1
  S  S64  1  0.39768250  0.54320950  0.51440100  1
  S  S65  1  0.60231750  0.54320950  0.98559900  1
  S  S66  1  0.10231750  0.95679050  0.48559900  1
  S  S67  1  0.89768250  0.95679050  0.01440100  1
  S  S68  1  0.37474450  0.71626550  0.50493500  1
  S  S69  1  0.62525550  0.71626550  0.99506500  1
  S  S70  1  0.12525550  0.78373450  0.49506500  1
  S  S71  1  0.87474450  0.78373450  0.00493500  1
  S  S72  1  0.12971950  0.61862950  0.49464000  1
  S  S73  1  0.87028050  0.61862950  0.00536000  1
  S  S74  1  0.37028050  0.88137050  0.50536000  1
  S  S75  1  0.62971950  0.88137050  0.99464000  1
  S  S76  1  0.63970700  0.95862900  0.49533400  1
  S  S77  1  0.36029300  0.95862900  0.00466600  1
  S  S78  1  0.86029300  0.54137100  0.50466600  1
  S  S79  1  0.13970700  0.54137100  0.99533400  1
  S  S80  1  0.61949950  0.79960450  0.48009200  1
  S  S81  1  0.38050050  0.79960450  0.01990800  1
  S  S82  1  0.88050050  0.70039550  0.51990800  1
  S  S83  1  0.11949950  0.70039550  0.98009200  1
