# generated using pymatgen
data_Rb(CrS2)2
_symmetry_space_group_name_H-M   'P 1'
_cell_length_a   16.32080200
_cell_length_b   3.42786800
_cell_length_c   5.61920333
_cell_angle_alpha   90.00000000
_cell_angle_beta   103.50023106
_cell_angle_gamma   90.00000000
_symmetry_Int_Tables_number   1
_chemical_formula_structural   Rb(CrS2)2
_chemical_formula_sum   'Rb2 Cr4 S8'
_cell_volume   305.68309935
_cell_formula_units_Z   2
loop_
 _symmetry_equiv_pos_site_id
 _symmetry_equiv_pos_as_xyz
  1  'x, y, z'
loop_
 _atom_site_type_symbol
 _atom_site_label
 _atom_site_symmetry_multiplicity
 _atom_site_fract_x
 _atom_site_fract_y
 _atom_site_fract_z
 _atom_site_occupancy
  Rb  Rb0  1  0.00000000  0.50000000  0.50000000  1
  Rb  Rb1  1  0.50000000  0.00000000  0.50000000  1
  Cr  Cr2  1  0.25216800  0.50000000  0.79454500  1
  Cr  Cr3  1  0.24783200  0.00000000  0.20545500  1
  Cr  Cr4  1  0.75216800  0.00000000  0.79454500  1
  Cr  Cr5  1  0.74783200  0.50000000  0.20545500  1
  S  S6  1  0.34429900  0.00000000  0.97569600  1
  S  S7  1  0.15570100  0.50000000  0.02430400  1
  S  S8  1  0.32408000  0.50000000  0.46357400  1
  S  S9  1  0.17592000  0.00000000  0.53642600  1
  S  S10  1  0.84429900  0.50000000  0.97569600  1
  S  S11  1  0.65570100  0.00000000  0.02430400  1
  S  S12  1  0.82408000  0.00000000  0.46357400  1
  S  S13  1  0.67592000  0.50000000  0.53642600  1
