# generated using pymatgen
data_TiSi2
_symmetry_space_group_name_H-M   'P 1'
_cell_length_a   3.53021005
_cell_length_b   13.51856307
_cell_length_c   3.56517397
_cell_angle_alpha   90.00000000
_cell_angle_beta   90.00000000
_cell_angle_gamma   90.00000000
_symmetry_Int_Tables_number   1
_chemical_formula_structural   TiSi2
_chemical_formula_sum   'Ti4 Si8'
_cell_volume   170.14210654
_cell_formula_units_Z   4
loop_
 _symmetry_equiv_pos_site_id
 _symmetry_equiv_pos_as_xyz
  1  'x, y, z'
loop_
 _atom_site_type_symbol
 _atom_site_label
 _atom_site_symmetry_multiplicity
 _atom_site_fract_x
 _atom_site_fract_y
 _atom_site_fract_z
 _atom_site_occupancy
  Ti  Ti0  1  0.50000000  0.60311808  0.75000000  1
  Ti  Ti1  1  0.00000000  0.89688192  0.25000000  1
  Ti  Ti2  1  0.00000000  0.10311808  0.75000000  1
  Ti  Ti3  1  0.50000000  0.39688192  0.25000000  1
  Si  Si4  1  0.50000000  0.94174855  0.75000000  1
  Si  Si5  1  0.00000000  0.55825145  0.25000000  1
  Si  Si6  1  0.00000000  0.75031482  0.75000000  1
  Si  Si7  1  0.50000000  0.74968518  0.25000000  1
  Si  Si8  1  0.00000000  0.44174855  0.75000000  1
  Si  Si9  1  0.50000000  0.05825145  0.25000000  1
  Si  Si10  1  0.50000000  0.25031482  0.75000000  1
  Si  Si11  1  0.00000000  0.24968518  0.25000000  1
