# generated using pymatgen
data_Na2PS3
_symmetry_space_group_name_H-M   'P 1'
_cell_length_a   6.72780066
_cell_length_b   11.17474246
_cell_length_c   7.51680750
_cell_angle_alpha   90.00000000
_cell_angle_beta   106.91921876
_cell_angle_gamma   90.00000000
_symmetry_Int_Tables_number   1
_chemical_formula_structural   Na2PS3
_chemical_formula_sum   'Na8 P4 S12'
_cell_volume   540.66357633
_cell_formula_units_Z   4
loop_
 _symmetry_equiv_pos_site_id
 _symmetry_equiv_pos_as_xyz
  1  'x, y, z'
loop_
 _atom_site_type_symbol
 _atom_site_label
 _atom_site_symmetry_multiplicity
 _atom_site_fract_x
 _atom_site_fract_y
 _atom_site_fract_z
 _atom_site_occupancy
  Na  Na0  1  0.50000000  0.16224753  0.00000000  1
  Na  Na1  1  0.50000000  0.83775247  0.00000000  1
  Na  Na2  1  0.50000000  0.31587870  0.50000000  1
  Na  Na3  1  0.50000000  0.68412130  0.50000000  1
  Na  Na4  1  0.00000000  0.66224753  0.00000000  1
  Na  Na5  1  0.00000000  0.33775247  0.00000000  1
  Na  Na6  1  0.00000000  0.81587870  0.50000000  1
  Na  Na7  1  0.00000000  0.18412130  0.50000000  1
  P  P8  1  0.94588608  0.00000000  0.84220309  1
  P  P9  1  0.05411392  0.00000000  0.15779691  1
  P  P10  1  0.44588608  0.50000000  0.84220309  1
  P  P11  1  0.55411392  0.50000000  0.15779691  1
  S  S12  1  0.20549288  0.00000000  0.75722032  1
  S  S13  1  0.79450712  0.00000000  0.24277968  1
  S  S14  1  0.77704450  0.84868790  0.76926479  1
  S  S15  1  0.77704450  0.15131210  0.76926479  1
  S  S16  1  0.22295550  0.15131210  0.23073521  1
  S  S17  1  0.22295550  0.84868790  0.23073521  1
  S  S18  1  0.70549288  0.50000000  0.75722032  1
  S  S19  1  0.29450712  0.50000000  0.24277968  1
  S  S20  1  0.27704450  0.34868790  0.76926479  1
  S  S21  1  0.27704450  0.65131210  0.76926479  1
  S  S22  1  0.72295550  0.65131210  0.23073521  1
  S  S23  1  0.72295550  0.34868790  0.23073521  1
