# generated using pymatgen
data_TiNbN2
_symmetry_space_group_name_H-M   'P 1'
_cell_length_a   3.06453368
_cell_length_b   3.06453368
_cell_length_c   15.22551264
_cell_angle_alpha   90.00000000
_cell_angle_beta   90.00000000
_cell_angle_gamma   120.00000000
_symmetry_Int_Tables_number   1
_chemical_formula_structural   TiNbN2
_chemical_formula_sum   'Ti3 Nb3 N6'
_cell_volume   123.83156238
_cell_formula_units_Z   3
loop_
 _symmetry_equiv_pos_site_id
 _symmetry_equiv_pos_as_xyz
  1  'x, y, z'
loop_
 _atom_site_type_symbol
 _atom_site_label
 _atom_site_symmetry_multiplicity
 _atom_site_fract_x
 _atom_site_fract_y
 _atom_site_fract_z
 _atom_site_occupancy
  Ti  Ti0  1  0.33333333  0.66666667  0.16666667  1
  Ti  Ti1  1  1.00000000  1.00000000  0.50000000  1
  Ti  Ti2  1  0.66666667  0.33333333  0.83333333  1
  Nb  Nb3  1  0.00000000  0.00000000  0.00000000  1
  Nb  Nb4  1  0.66666667  0.33333333  0.33333333  1
  Nb  Nb5  1  0.33333333  0.66666667  0.66666667  1
  N  N6  1  0.00000000  0.00000000  0.24358200  1
  N  N7  1  0.66666667  0.33333333  0.08975133  1
  N  N8  1  0.66666667  0.33333333  0.57691533  1
  N  N9  1  0.33333333  0.66666667  0.42308467  1
  N  N10  1  0.33333333  0.66666667  0.91024867  1
  N  N11  1  0.00000000  0.00000000  0.75641800  1
