# generated using pymatgen
data_Sr(SbRu)2
_symmetry_space_group_name_H-M   'P 1'
_cell_length_a   4.49381200
_cell_length_b   4.49381200
_cell_length_c   11.44101400
_cell_angle_alpha   90.00000000
_cell_angle_beta   90.00000000
_cell_angle_gamma   90.00000000
_symmetry_Int_Tables_number   1
_chemical_formula_structural   Sr(SbRu)2
_chemical_formula_sum   'Sr2 Sb4 Ru4'
_cell_volume   231.04379864
_cell_formula_units_Z   2
loop_
 _symmetry_equiv_pos_site_id
 _symmetry_equiv_pos_as_xyz
  1  'x, y, z'
loop_
 _atom_site_type_symbol
 _atom_site_label
 _atom_site_symmetry_multiplicity
 _atom_site_fract_x
 _atom_site_fract_y
 _atom_site_fract_z
 _atom_site_occupancy
  Sr  Sr0  1  0.00000000  0.00000000  0.00000000  1
  Sr  Sr1  1  0.50000000  0.50000000  0.50000000  1
  Sb  Sb2  1  0.50000000  0.50000000  0.13643800  1
  Sb  Sb3  1  0.00000000  0.00000000  0.36356200  1
  Sb  Sb4  1  0.00000000  0.00000000  0.63643800  1
  Sb  Sb5  1  0.50000000  0.50000000  0.86356200  1
  Ru  Ru6  1  0.00000000  0.50000000  0.25000000  1
  Ru  Ru7  1  0.50000000  0.00000000  0.25000000  1
  Ru  Ru8  1  0.50000000  0.00000000  0.75000000  1
  Ru  Ru9  1  0.00000000  0.50000000  0.75000000  1
