# generated using pymatgen
data_CaPSe3
_symmetry_space_group_name_H-M   'P 1'
_cell_length_a   6.90917060
_cell_length_b   7.58328821
_cell_length_c   11.69673069
_cell_angle_alpha   90.00000000
_cell_angle_beta   124.15024686
_cell_angle_gamma   90.00000000
_symmetry_Int_Tables_number   1
_chemical_formula_structural   CaPSe3
_chemical_formula_sum   'Ca4 P4 Se12'
_cell_volume   507.16799819
_cell_formula_units_Z   4
loop_
 _symmetry_equiv_pos_site_id
 _symmetry_equiv_pos_as_xyz
  1  'x, y, z'
loop_
 _atom_site_type_symbol
 _atom_site_label
 _atom_site_symmetry_multiplicity
 _atom_site_fract_x
 _atom_site_fract_y
 _atom_site_fract_z
 _atom_site_occupancy
  Ca  Ca0  1  0.28387791  0.38517067  0.24680873  1
  Ca  Ca1  1  0.28387791  0.11482933  0.74680873  1
  Ca  Ca2  1  0.71612209  0.88517067  0.25319127  1
  Ca  Ca3  1  0.71612209  0.61482933  0.75319127  1
  P  P4  1  0.37207369  0.89365137  0.43633496  1
  P  P5  1  0.62792631  0.10634863  0.56366504  1
  P  P6  1  0.62792631  0.39365137  0.06366504  1
  P  P7  1  0.37207369  0.60634863  0.93633496  1
  Se  Se8  1  0.11384548  0.01155415  0.23622144  1
  Se  Se9  1  0.77298862  0.20085441  0.44979943  1
  Se  Se10  1  0.22701138  0.70085441  0.05020057  1
  Se  Se11  1  0.22701138  0.79914559  0.55020057  1
  Se  Se12  1  0.59564654  0.80973878  0.93590018  1
  Se  Se13  1  0.40435346  0.30973878  0.56409982  1
  Se  Se14  1  0.40435346  0.19026122  0.06409982  1
  Se  Se15  1  0.59564654  0.69026122  0.43590018  1
  Se  Se16  1  0.88615452  0.51155415  0.26377856  1
  Se  Se17  1  0.88615452  0.98844585  0.76377856  1
  Se  Se18  1  0.11384548  0.48844585  0.73622144  1
  Se  Se19  1  0.77298862  0.29914559  0.94979943  1
