# generated using pymatgen
data_Te2Mo
_symmetry_space_group_name_H-M   'P 1'
_cell_length_a   6.36160902
_cell_length_b   3.48040306
_cell_length_c   36.17599208
_cell_angle_alpha   90.00000000
_cell_angle_beta   90.13579765
_cell_angle_gamma   90.00000000
_symmetry_Int_Tables_number   1
_chemical_formula_structural   Te2Mo
_chemical_formula_sum   'Te4 Mo2'
_cell_volume   800.96906988
_cell_formula_units_Z   2
loop_
 _symmetry_equiv_pos_site_id
 _symmetry_equiv_pos_as_xyz
  1  'x, y, z'
loop_
 _atom_site_type_symbol
 _atom_site_label
 _atom_site_symmetry_multiplicity
 _atom_site_fract_x
 _atom_site_fract_y
 _atom_site_fract_z
 _atom_site_occupancy
  Te  Te0  1  0.92084787  0.25000000  0.55652732  1
  Te  Te1  1  0.07915213  0.75000000  0.44347268  1
  Te  Te2  1  0.42925110  0.75000000  0.54070358  1
  Te  Te3  1  0.57074890  0.25000000  0.45929642  1
  Mo  Mo4  1  0.18134756  0.25000000  0.49746537  1
  Mo  Mo5  1  0.81865244  0.75000000  0.50253463  1
