# generated using pymatgen
data_Cd5TeS4
_symmetry_space_group_name_H-M   'P 1'
_cell_length_a   4.30246600
_cell_length_b   4.30246600
_cell_length_c   30.16732800
_cell_angle_alpha   90.00000000
_cell_angle_beta   90.00000000
_cell_angle_gamma   90.00000000
_symmetry_Int_Tables_number   1
_chemical_formula_structural   Cd5TeS4
_chemical_formula_sum   'Cd10 Te2 S8'
_cell_volume   558.43385480
_cell_formula_units_Z   2
loop_
 _symmetry_equiv_pos_site_id
 _symmetry_equiv_pos_as_xyz
  1  'x, y, z'
loop_
 _atom_site_type_symbol
 _atom_site_label
 _atom_site_symmetry_multiplicity
 _atom_site_fract_x
 _atom_site_fract_y
 _atom_site_fract_z
 _atom_site_occupancy
  Cd  Cd0  1  0.50000000  0.50000000  0.30942900  1
  Cd  Cd1  1  0.00000000  0.00000000  0.19057100  1
  Cd  Cd2  1  0.50000000  0.50000000  0.09592200  1
  Cd  Cd3  1  0.00000000  0.00000000  0.00000000  1
  Cd  Cd4  1  0.00000000  0.00000000  0.40407800  1
  Cd  Cd5  1  0.00000000  0.00000000  0.80942900  1
  Cd  Cd6  1  0.50000000  0.50000000  0.69057100  1
  Cd  Cd7  1  0.00000000  0.00000000  0.59592200  1
  Cd  Cd8  1  0.50000000  0.50000000  0.50000000  1
  Cd  Cd9  1  0.50000000  0.50000000  0.90407800  1
  Te  Te10  1  0.00000000  0.50000000  0.25000000  1
  Te  Te11  1  0.50000000  0.00000000  0.75000000  1
  S  S12  1  0.50000000  0.00000000  0.14320800  1
  S  S13  1  0.00000000  0.50000000  0.04823900  1
  S  S14  1  0.00000000  0.50000000  0.45176100  1
  S  S15  1  0.50000000  0.00000000  0.35679200  1
  S  S16  1  0.00000000  0.50000000  0.64320800  1
  S  S17  1  0.50000000  0.00000000  0.54823900  1
  S  S18  1  0.50000000  0.00000000  0.95176100  1
  S  S19  1  0.00000000  0.50000000  0.85679200  1
