# generated using pymatgen
data_Cu2WSe4
_symmetry_space_group_name_H-M   'P 1'
_cell_length_a   5.56010564
_cell_length_b   5.56010564
_cell_length_c   11.21352958
_cell_angle_alpha   90.00000000
_cell_angle_beta   90.00000000
_cell_angle_gamma   90.00000000
_symmetry_Int_Tables_number   1
_chemical_formula_structural   Cu2WSe4
_chemical_formula_sum   'Cu4 W2 Se8'
_cell_volume   346.66374087
_cell_formula_units_Z   2
loop_
 _symmetry_equiv_pos_site_id
 _symmetry_equiv_pos_as_xyz
  1  'x, y, z'
loop_
 _atom_site_type_symbol
 _atom_site_label
 _atom_site_symmetry_multiplicity
 _atom_site_fract_x
 _atom_site_fract_y
 _atom_site_fract_z
 _atom_site_occupancy
  Cu  Cu0  1  0.50000000  0.00000000  0.00000000  1
  Cu  Cu1  1  0.00000000  0.50000000  0.00000000  1
  Cu  Cu2  1  0.00000000  0.50000000  0.50000000  1
  Cu  Cu3  1  0.50000000  0.00000000  0.50000000  1
  W  W4  1  0.00000000  0.00000000  0.00000000  1
  W  W5  1  0.50000000  0.50000000  0.50000000  1
  Se  Se6  1  0.24223226  0.75776774  0.12510258  1
  Se  Se7  1  0.75776774  0.24223226  0.12510258  1
  Se  Se8  1  0.25776774  0.25776774  0.37489743  1
  Se  Se9  1  0.74223226  0.74223226  0.37489743  1
  Se  Se10  1  0.74223226  0.25776774  0.62510257  1
  Se  Se11  1  0.25776774  0.74223226  0.62510257  1
  Se  Se12  1  0.75776774  0.75776774  0.87489743  1
  Se  Se13  1  0.24223226  0.24223226  0.87489743  1
