# generated using pymatgen
data_MnZn4Se5
_symmetry_space_group_name_H-M   'P 1'
_cell_length_a   4.08723366
_cell_length_b   4.08723366
_cell_length_c   49.97695221
_cell_angle_alpha   90.00000000
_cell_angle_beta   90.00000000
_cell_angle_gamma   120.00000000
_symmetry_Int_Tables_number   1
_chemical_formula_structural   MnZn4Se5
_chemical_formula_sum   'Mn3 Zn12 Se15'
_cell_volume   723.03501988
_cell_formula_units_Z   3
loop_
 _symmetry_equiv_pos_site_id
 _symmetry_equiv_pos_as_xyz
  1  'x, y, z'
loop_
 _atom_site_type_symbol
 _atom_site_label
 _atom_site_symmetry_multiplicity
 _atom_site_fract_x
 _atom_site_fract_y
 _atom_site_fract_z
 _atom_site_occupancy
  Mn  Mn0  1  0.33333333  0.66666667  0.31651467  1
  Mn  Mn1  1  0.00000000  0.00000000  0.64984800  1
  Mn  Mn2  1  0.66666667  0.33333333  0.98318133  1
  Zn  Zn3  1  0.00000000  0.00000000  0.05023800  1
  Zn  Zn4  1  0.33333333  0.66666667  0.11666567  1
  Zn  Zn5  1  0.66666667  0.33333333  0.18333433  1
  Zn  Zn6  1  0.00000000  0.00000000  0.24974400  1
  Zn  Zn7  1  0.66666667  0.33333333  0.38357133  1
  Zn  Zn8  1  0.00000000  0.00000000  0.44999900  1
  Zn  Zn9  1  0.33333333  0.66666667  0.51666767  1
  Zn  Zn10  1  0.66666667  0.33333333  0.58307733  1
  Zn  Zn11  1  0.33333333  0.66666667  0.71690467  1
  Zn  Zn12  1  0.66666667  0.33333333  0.78333233  1
  Zn  Zn13  1  0.00000000  0.00000000  0.85000100  1
  Zn  Zn14  1  0.33333333  0.66666667  0.91641067  1
  Se  Se15  1  0.00000000  0.00000000  0.00082000  1
  Se  Se16  1  0.33333333  0.66666667  0.06671667  1
  Se  Se17  1  0.66666667  0.33333333  0.13335733  1
  Se  Se18  1  0.00000000  0.00000000  0.19991300  1
  Se  Se19  1  0.33333333  0.66666667  0.26602967  1
  Se  Se20  1  0.66666667  0.33333333  0.33415333  1
  Se  Se21  1  0.00000000  0.00000000  0.40005000  1
  Se  Se22  1  0.33333333  0.66666667  0.46669067  1
  Se  Se23  1  0.66666667  0.33333333  0.53324633  1
  Se  Se24  1  0.00000000  0.00000000  0.59936300  1
  Se  Se25  1  0.33333333  0.66666667  0.66748667  1
  Se  Se26  1  0.66666667  0.33333333  0.73338333  1
  Se  Se27  1  0.00000000  0.00000000  0.80002400  1
  Se  Se28  1  0.33333333  0.66666667  0.86657967  1
  Se  Se29  1  0.66666667  0.33333333  0.93269633  1
