# generated using pymatgen
data_Nb6TlS8
_symmetry_space_group_name_H-M   'P 1'
_cell_length_a   9.75235731
_cell_length_b   9.75235731
_cell_length_c   3.39774526
_cell_angle_alpha   90.00000000
_cell_angle_beta   90.00000000
_cell_angle_gamma   120.00000000
_symmetry_Int_Tables_number   1
_chemical_formula_structural   Nb6TlS8
_chemical_formula_sum   'Nb6 Tl1 S8'
_cell_volume   279.85988840
_cell_formula_units_Z   1
loop_
 _symmetry_equiv_pos_site_id
 _symmetry_equiv_pos_as_xyz
  1  'x, y, z'
loop_
 _atom_site_type_symbol
 _atom_site_label
 _atom_site_symmetry_multiplicity
 _atom_site_fract_x
 _atom_site_fract_y
 _atom_site_fract_z
 _atom_site_occupancy
  Nb  Nb0  1  0.04128825  0.22370108  0.00000000  1
  Nb  Nb1  1  0.18241284  0.95871175  0.00000000  1
  Nb  Nb2  1  0.77629892  0.81758716  0.00000000  1
  Nb  Nb3  1  0.28865790  0.44293148  0.50000000  1
  Nb  Nb4  1  0.15427359  0.71134210  0.50000000  1
  Nb  Nb5  1  0.55706852  0.84572641  0.50000000  1
  Tl  Tl6  1  0.66666667  0.33333333  0.00000000  1
  S  S7  1  0.31826171  0.27501926  0.00000000  1
  S  S8  1  0.95675756  0.68173829  0.00000000  1
  S  S9  1  0.72498074  0.04324244  0.00000000  1
  S  S10  1  0.01076297  0.39192396  0.50000000  1
  S  S11  1  0.38116100  0.98923703  0.50000000  1
  S  S12  1  0.60807604  0.61883900  0.50000000  1
  S  S13  1  0.33333333  0.66666667  0.00000000  1
  S  S14  1  0.00000000  0.00000000  0.50000000  1
