# generated using pymatgen
data_In2Se3
_symmetry_space_group_name_H-M   'P 1'
_cell_length_a   6.88806328
_cell_length_b   3.97540876
_cell_length_c   9.86413276
_cell_angle_alpha   90.00000000
_cell_angle_beta   90.16453228
_cell_angle_gamma   90.00000000
_symmetry_Int_Tables_number   1
_chemical_formula_structural   In2Se3
_chemical_formula_sum   'In4 Se6'
_cell_volume   270.10712285
_cell_formula_units_Z   2
loop_
 _symmetry_equiv_pos_site_id
 _symmetry_equiv_pos_as_xyz
  1  'x, y, z'
loop_
 _atom_site_type_symbol
 _atom_site_label
 _atom_site_symmetry_multiplicity
 _atom_site_fract_x
 _atom_site_fract_y
 _atom_site_fract_z
 _atom_site_occupancy
  In  In0  1  0.33267929  0.00000000  0.81037070  1
  In  In1  1  0.16732071  0.50000000  0.18962930  1
  In  In2  1  0.83267929  0.50000000  0.81037070  1
  In  In3  1  0.66732071  0.00000000  0.18962930  1
  Se  Se4  1  0.00000000  0.00000000  0.00000000  1
  Se  Se5  1  0.33417152  0.00000000  0.32365472  1
  Se  Se6  1  0.16582848  0.50000000  0.67634528  1
  Se  Se7  1  0.50000000  0.50000000  0.00000000  1
  Se  Se8  1  0.83417152  0.50000000  0.32365472  1
  Se  Se9  1  0.66582848  0.00000000  0.67634528  1
