# generated using pymatgen
data_TaVH4
_symmetry_space_group_name_H-M   'P 1'
_cell_length_a   3.10734179
_cell_length_b   3.10734179
_cell_length_c   15.21756261
_cell_angle_alpha   90.00000000
_cell_angle_beta   90.00000000
_cell_angle_gamma   120.00000000
_symmetry_Int_Tables_number   1
_chemical_formula_structural   TaVH4
_chemical_formula_sum   'Ta3 V3 H12'
_cell_volume   127.24882523
_cell_formula_units_Z   3
loop_
 _symmetry_equiv_pos_site_id
 _symmetry_equiv_pos_as_xyz
  1  'x, y, z'
loop_
 _atom_site_type_symbol
 _atom_site_label
 _atom_site_symmetry_multiplicity
 _atom_site_fract_x
 _atom_site_fract_y
 _atom_site_fract_z
 _atom_site_occupancy
  Ta  Ta0  1  0.00000000  0.00000000  0.00000000  1
  Ta  Ta1  1  0.66666667  0.33333333  0.33333333  1
  Ta  Ta2  1  0.33333333  0.66666667  0.66666667  1
  V  V3  1  0.33333333  0.66666667  0.16666667  1
  V  V4  1  1.00000000  1.00000000  0.50000000  1
  V  V5  1  0.66666667  0.33333333  0.83333333  1
  H  H6  1  0.33333333  0.66666667  0.28651339  1
  H  H7  1  0.00000000  0.00000000  0.12903966  1
  H  H8  1  0.66666667  0.33333333  0.20429367  1
  H  H9  1  0.33333333  0.66666667  0.04681995  1
  H  H10  1  0.00000000  0.00000000  0.61984672  1
  H  H11  1  0.66666667  0.33333333  0.46237299  1
  H  H12  1  0.33333333  0.66666667  0.53762701  1
  H  H13  1  0.00000000  0.00000000  0.38015328  1
  H  H14  1  0.66666667  0.33333333  0.95318005  1
  H  H15  1  0.33333333  0.66666667  0.79570633  1
  H  H16  1  0.00000000  0.00000000  0.87096034  1
  H  H17  1  0.66666667  0.33333333  0.71348661  1
