# generated using pymatgen
data_TaNbTe4
_symmetry_space_group_name_H-M   'P 1'
_cell_length_a   7.35455193
_cell_length_b   7.79135802
_cell_length_c   10.26483937
_cell_angle_alpha   64.96936394
_cell_angle_beta   69.11859974
_cell_angle_gamma   76.52001498
_symmetry_Int_Tables_number   1
_chemical_formula_structural   TaNbTe4
_chemical_formula_sum   'Ta3 Nb3 Te12'
_cell_volume   495.59028956
_cell_formula_units_Z   3
loop_
 _symmetry_equiv_pos_site_id
 _symmetry_equiv_pos_as_xyz
  1  'x, y, z'
loop_
 _atom_site_type_symbol
 _atom_site_label
 _atom_site_symmetry_multiplicity
 _atom_site_fract_x
 _atom_site_fract_y
 _atom_site_fract_z
 _atom_site_occupancy
  Ta  Ta0  1  0.32614600  0.27487900  0.71123200  1
  Ta  Ta1  1  0.99963100  0.99963300  0.00051700  1
  Ta  Ta2  1  0.50000400  0.99980300  0.00032400  1
  Nb  Nb3  1  0.17403800  0.72574100  0.28791400  1
  Nb  Nb4  1  0.67417100  0.72565200  0.28798800  1
  Nb  Nb5  1  0.82575400  0.27374100  0.71258800  1
  Te  Te6  1  0.81603800  0.70917600  0.01188200  1
  Te  Te7  1  0.31603900  0.70862200  0.01233800  1
  Te  Te8  1  0.18440000  0.29248200  0.98632800  1
  Te  Te9  1  0.68391900  0.29093300  0.98839500  1
  Te  Te10  1  0.64853200  0.01210300  0.69316600  1
  Te  Te11  1  0.15009500  0.01192700  0.69342400  1
  Te  Te12  1  0.35057200  0.98897800  0.30608600  1
  Te  Te13  1  0.85088400  0.98902900  0.30622000  1
  Te  Te14  1  0.45525500  0.41214700  0.38327800  1
  Te  Te15  1  0.95525300  0.41278100  0.38314400  1
  Te  Te16  1  0.54429000  0.58629700  0.61762000  1
  Te  Te17  1  0.04497800  0.58607700  0.61755600  1
