# generated using pymatgen
data_ZrAlCo4
_symmetry_space_group_name_H-M   'P 1'
_cell_length_a   6.75721400
_cell_length_b   6.75721400
_cell_length_c   6.75721400
_cell_angle_alpha   90.00000000
_cell_angle_beta   90.00000000
_cell_angle_gamma   90.00000000
_symmetry_Int_Tables_number   1
_chemical_formula_structural   ZrAlCo4
_chemical_formula_sum   'Zr4 Al4 Co16'
_cell_volume   308.53399285
_cell_formula_units_Z   4
loop_
 _symmetry_equiv_pos_site_id
 _symmetry_equiv_pos_as_xyz
  1  'x, y, z'
loop_
 _atom_site_type_symbol
 _atom_site_label
 _atom_site_symmetry_multiplicity
 _atom_site_fract_x
 _atom_site_fract_y
 _atom_site_fract_z
 _atom_site_occupancy
  Zr  Zr0  1  0.00000000  0.00000000  0.00000000  1
  Zr  Zr1  1  0.00000000  0.50000000  0.50000000  1
  Zr  Zr2  1  0.50000000  0.00000000  0.50000000  1
  Zr  Zr3  1  0.50000000  0.50000000  0.00000000  1
  Al  Al4  1  0.25000000  0.25000000  0.75000000  1
  Al  Al5  1  0.25000000  0.75000000  0.25000000  1
  Al  Al6  1  0.75000000  0.25000000  0.25000000  1
  Al  Al7  1  0.75000000  0.75000000  0.75000000  1
  Co  Co8  1  0.87668700  0.37668700  0.87668700  1
  Co  Co9  1  0.37668700  0.12331300  0.12331300  1
  Co  Co10  1  0.62331300  0.12331300  0.87668700  1
  Co  Co11  1  0.12331300  0.37668700  0.12331300  1
  Co  Co12  1  0.87668700  0.87668700  0.37668700  1
  Co  Co13  1  0.37668700  0.62331300  0.62331300  1
  Co  Co14  1  0.62331300  0.62331300  0.37668700  1
  Co  Co15  1  0.12331300  0.87668700  0.62331300  1
  Co  Co16  1  0.37668700  0.37668700  0.37668700  1
  Co  Co17  1  0.87668700  0.12331300  0.62331300  1
  Co  Co18  1  0.12331300  0.12331300  0.37668700  1
  Co  Co19  1  0.62331300  0.37668700  0.62331300  1
  Co  Co20  1  0.37668700  0.87668700  0.87668700  1
  Co  Co21  1  0.87668700  0.62331300  0.12331300  1
  Co  Co22  1  0.12331300  0.62331300  0.87668700  1
  Co  Co23  1  0.62331300  0.87668700  0.12331300  1
