# generated using pymatgen
data_Y5Pt4
_symmetry_space_group_name_H-M   'P 1'
_cell_length_a   7.50707276
_cell_length_b   7.57967538
_cell_length_c   14.60915422
_cell_angle_alpha   90.00000000
_cell_angle_beta   90.00000000
_cell_angle_gamma   90.00000000
_symmetry_Int_Tables_number   1
_chemical_formula_structural   Y5Pt4
_chemical_formula_sum   'Y20 Pt16'
_cell_volume   831.27803466
_cell_formula_units_Z   4
loop_
 _symmetry_equiv_pos_site_id
 _symmetry_equiv_pos_as_xyz
  1  'x, y, z'
loop_
 _atom_site_type_symbol
 _atom_site_label
 _atom_site_symmetry_multiplicity
 _atom_site_fract_x
 _atom_site_fract_y
 _atom_site_fract_z
 _atom_site_occupancy
  Y  Y0  1  0.68185475  0.98818941  0.25000000  1
  Y  Y1  1  0.18185475  0.51181059  0.25000000  1
  Y  Y2  1  0.81814525  0.48818941  0.75000000  1
  Y  Y3  1  0.31814525  0.01181059  0.75000000  1
  Y  Y4  1  0.65622760  0.83208068  0.62179603  1
  Y  Y5  1  0.15622760  0.66791932  0.87820397  1
  Y  Y6  1  0.84377240  0.33208068  0.37820397  1
  Y  Y7  1  0.34377240  0.16791932  0.12179603  1
  Y  Y8  1  0.34377240  0.16791932  0.37820397  1
  Y  Y9  1  0.84377240  0.33208068  0.12179603  1
  Y  Y10  1  0.15622760  0.66791932  0.62179603  1
  Y  Y11  1  0.65622760  0.83208068  0.87820397  1
  Y  Y12  1  0.99826846  0.81954365  0.40646276  1
  Y  Y13  1  0.49826846  0.68045635  0.09353724  1
  Y  Y14  1  0.50173154  0.31954365  0.59353724  1
  Y  Y15  1  0.00173154  0.18045635  0.90646276  1
  Y  Y16  1  0.00173154  0.18045635  0.59353724  1
  Y  Y17  1  0.50173154  0.31954365  0.90646276  1
  Y  Y18  1  0.49826846  0.68045635  0.40646276  1
  Y  Y19  1  0.99826846  0.81954365  0.09353724  1
  Pt  Pt20  1  0.81350661  0.64015112  0.25000000  1
  Pt  Pt21  1  0.31350661  0.85984888  0.25000000  1
  Pt  Pt22  1  0.68649339  0.14015112  0.75000000  1
  Pt  Pt23  1  0.18649339  0.35984888  0.75000000  1
  Pt  Pt24  1  0.54816326  0.38799394  0.25000000  1
  Pt  Pt25  1  0.04816326  0.11200606  0.25000000  1
  Pt  Pt26  1  0.95183674  0.88799394  0.75000000  1
  Pt  Pt27  1  0.45183674  0.61200606  0.75000000  1
  Pt  Pt28  1  0.81721298  0.53182278  0.54163800  1
  Pt  Pt29  1  0.31721298  0.96817722  0.95836200  1
  Pt  Pt30  1  0.68278702  0.03182278  0.45836200  1
  Pt  Pt31  1  0.18278702  0.46817722  0.04163800  1
  Pt  Pt32  1  0.18278702  0.46817722  0.45836200  1
  Pt  Pt33  1  0.68278702  0.03182278  0.04163800  1
  Pt  Pt34  1  0.31721298  0.96817722  0.54163800  1
  Pt  Pt35  1  0.81721298  0.53182278  0.95836200  1
