# generated using pymatgen
data_In5AgSe8
_symmetry_space_group_name_H-M   'P 1'
_cell_length_a   8.34468825
_cell_length_b   11.70092946
_cell_length_c   8.36073279
_cell_angle_alpha   90.00000000
_cell_angle_beta   90.39723675
_cell_angle_gamma   90.00000000
_symmetry_Int_Tables_number   1
_chemical_formula_structural   In5AgSe8
_chemical_formula_sum   'In10 Ag2 Se16'
_cell_volume   816.32741737
_cell_formula_units_Z   2
loop_
 _symmetry_equiv_pos_site_id
 _symmetry_equiv_pos_as_xyz
  1  'x, y, z'
loop_
 _atom_site_type_symbol
 _atom_site_label
 _atom_site_symmetry_multiplicity
 _atom_site_fract_x
 _atom_site_fract_y
 _atom_site_fract_z
 _atom_site_occupancy
  In  In0  1  0.50000000  0.48834177  0.50000000  1
  In  In1  1  0.50000000  0.01211949  0.00000000  1
  In  In2  1  0.50000000  0.00197183  0.50000000  1
  In  In3  1  0.73588967  0.25095911  0.24331340  1
  In  In4  1  0.26411033  0.25095911  0.75668660  1
  In  In5  1  0.00000000  0.98834177  0.50000000  1
  In  In6  1  0.00000000  0.51211949  0.00000000  1
  In  In7  1  0.00000000  0.50197183  0.50000000  1
  In  In8  1  0.23588967  0.75095911  0.24331340  1
  In  In9  1  0.76411033  0.75095911  0.75668660  1
  Ag  Ag10  1  0.50000000  0.49652415  0.00000000  1
  Ag  Ag11  1  0.00000000  0.99652415  0.00000000  1
  Se  Se12  1  0.24759342  0.13689820  0.01881160  1
  Se  Se13  1  0.75464013  0.13279575  0.51637931  1
  Se  Se14  1  0.75240658  0.13689820  0.98118840  1
  Se  Se15  1  0.24535987  0.13279575  0.48362069  1
  Se  Se16  1  0.52850568  0.36219707  0.74873243  1
  Se  Se17  1  0.51125179  0.86767075  0.24850145  1
  Se  Se18  1  0.47149432  0.36219707  0.25126757  1
  Se  Se19  1  0.48874821  0.86767075  0.75149855  1
  Se  Se20  1  0.74759342  0.63689820  0.01881160  1
  Se  Se21  1  0.25464013  0.63279575  0.51637931  1
  Se  Se22  1  0.25240658  0.63689820  0.98118840  1
  Se  Se23  1  0.74535987  0.63279575  0.48362069  1
  Se  Se24  1  0.02850568  0.86219707  0.74873243  1
  Se  Se25  1  0.01125179  0.36767075  0.24850145  1
  Se  Se26  1  0.97149432  0.86219707  0.25126757  1
  Se  Se27  1  0.98874821  0.36767075  0.75149855  1
