# generated using pymatgen
data_Sr3CaS4
_symmetry_space_group_name_H-M   'P 1'
_cell_length_a   8.43975056
_cell_length_b   11.93238974
_cell_length_c   4.21954005
_cell_angle_alpha   90.00000000
_cell_angle_beta   90.00000000
_cell_angle_gamma   90.00000000
_symmetry_Int_Tables_number   1
_chemical_formula_structural   Sr3CaS4
_chemical_formula_sum   'Sr6 Ca2 S8'
_cell_volume   424.93465851
_cell_formula_units_Z   2
loop_
 _symmetry_equiv_pos_site_id
 _symmetry_equiv_pos_as_xyz
  1  'x, y, z'
loop_
 _atom_site_type_symbol
 _atom_site_label
 _atom_site_symmetry_multiplicity
 _atom_site_fract_x
 _atom_site_fract_y
 _atom_site_fract_z
 _atom_site_occupancy
  Sr  Sr0  1  0.25000000  0.25000000  0.50000000  1
  Sr  Sr1  1  0.25000000  0.75000000  0.50000000  1
  Sr  Sr2  1  0.50000000  0.00000000  0.00000000  1
  Sr  Sr3  1  0.75000000  0.75000000  0.50000000  1
  Sr  Sr4  1  0.75000000  0.25000000  0.50000000  1
  Sr  Sr5  1  0.00000000  0.50000000  0.00000000  1
  Ca  Ca6  1  0.00000000  0.00000000  0.00000000  1
  Ca  Ca7  1  0.50000000  0.50000000  0.00000000  1
  S  S8  1  0.50000000  0.25444880  0.00000000  1
  S  S9  1  0.50000000  0.74555120  0.00000000  1
  S  S10  1  0.75876539  0.00000000  0.50000000  1
  S  S11  1  0.24123461  0.00000000  0.50000000  1
  S  S12  1  0.00000000  0.75444880  0.00000000  1
  S  S13  1  0.00000000  0.24555120  0.00000000  1
  S  S14  1  0.25876539  0.50000000  0.50000000  1
  S  S15  1  0.74123461  0.50000000  0.50000000  1
