# generated using pymatgen
data_Tl2Pd3S2
_symmetry_space_group_name_H-M   'P 1'
_cell_length_a   5.89538010
_cell_length_b   5.89538010
_cell_length_c   14.13211722
_cell_angle_alpha   90.00000000
_cell_angle_beta   90.00000000
_cell_angle_gamma   120.00000000
_symmetry_Int_Tables_number   1
_chemical_formula_structural   Tl2Pd3S2
_chemical_formula_sum   'Tl6 Pd9 S6'
_cell_volume   425.36473835
_cell_formula_units_Z   3
loop_
 _symmetry_equiv_pos_site_id
 _symmetry_equiv_pos_as_xyz
  1  'x, y, z'
loop_
 _atom_site_type_symbol
 _atom_site_label
 _atom_site_symmetry_multiplicity
 _atom_site_fract_x
 _atom_site_fract_y
 _atom_site_fract_z
 _atom_site_occupancy
  Tl  Tl0  1  0.00000000  0.00000000  0.00000000  1
  Tl  Tl1  1  0.33333333  0.66666667  0.16666667  1
  Tl  Tl2  1  0.66666667  0.33333333  0.33333333  1
  Tl  Tl3  1  1.00000000  1.00000000  0.50000000  1
  Tl  Tl4  1  0.33333333  0.66666667  0.66666667  1
  Tl  Tl5  1  0.66666667  0.33333333  0.83333333  1
  Pd  Pd6  1  0.16666667  0.33333333  0.83333333  1
  Pd  Pd7  1  0.33333333  0.16666667  0.16666667  1
  Pd  Pd8  1  0.83333333  0.16666667  0.16666667  1
  Pd  Pd9  1  0.83333333  0.66666667  0.16666667  1
  Pd  Pd10  1  0.00000000  0.50000000  0.50000000  1
  Pd  Pd11  1  0.50000000  0.50000000  0.50000000  1
  Pd  Pd12  1  0.50000000  0.00000000  0.50000000  1
  Pd  Pd13  1  0.66666667  0.83333333  0.83333333  1
  Pd  Pd14  1  0.16666667  0.83333333  0.83333333  1
  S  S15  1  0.33333333  0.66666667  0.38673206  1
  S  S16  1  0.33333333  0.66666667  0.94660128  1
  S  S17  1  0.00000000  0.00000000  0.72006539  1
  S  S18  1  0.00000000  0.00000000  0.27993461  1
  S  S19  1  0.66666667  0.33333333  0.05339872  1
  S  S20  1  0.66666667  0.33333333  0.61326794  1
