# generated using pymatgen
data_K3GeS3
_symmetry_space_group_name_H-M   'P 1'
_cell_length_a   8.70990624
_cell_length_b   12.41108847
_cell_length_c   8.19867283
_cell_angle_alpha   90.00000000
_cell_angle_beta   116.36882490
_cell_angle_gamma   90.00000000
_symmetry_Int_Tables_number   1
_chemical_formula_structural   K3GeS3
_chemical_formula_sum   'K12 Ge4 S12'
_cell_volume   794.05832866
_cell_formula_units_Z   4
loop_
 _symmetry_equiv_pos_site_id
 _symmetry_equiv_pos_as_xyz
  1  'x, y, z'
loop_
 _atom_site_type_symbol
 _atom_site_label
 _atom_site_symmetry_multiplicity
 _atom_site_fract_x
 _atom_site_fract_y
 _atom_site_fract_z
 _atom_site_occupancy
  K  K0  1  0.78368879  0.00000000  0.31467118  1
  K  K1  1  0.21631121  0.00000000  0.68532882  1
  K  K2  1  0.25000000  0.25000000  0.00000000  1
  K  K3  1  0.25000000  0.75000000  0.00000000  1
  K  K4  1  0.50000000  0.83215548  0.50000000  1
  K  K5  1  0.50000000  0.16784452  0.50000000  1
  K  K6  1  0.28368879  0.50000000  0.31467118  1
  K  K7  1  0.71631121  0.50000000  0.68532882  1
  K  K8  1  0.75000000  0.75000000  0.00000000  1
  K  K9  1  0.75000000  0.25000000  0.00000000  1
  K  K10  1  0.00000000  0.33215548  0.50000000  1
  K  K11  1  0.00000000  0.66784452  0.50000000  1
  Ge  Ge12  1  0.11826165  0.00000000  0.15598623  1
  Ge  Ge13  1  0.88173835  0.00000000  0.84401377  1
  Ge  Ge14  1  0.61826165  0.50000000  0.15598623  1
  Ge  Ge15  1  0.38173835  0.50000000  0.84401377  1
  S  S16  1  0.40341375  0.64677972  0.69965741  1
  S  S17  1  0.59658625  0.64677972  0.30034259  1
  S  S18  1  0.36860289  0.00000000  0.14246870  1
  S  S19  1  0.63139711  0.00000000  0.85753130  1
  S  S20  1  0.59658625  0.35322028  0.30034259  1
  S  S21  1  0.40341375  0.35322028  0.69965741  1
  S  S22  1  0.90341375  0.14677972  0.69965741  1
  S  S23  1  0.09658625  0.14677972  0.30034259  1
  S  S24  1  0.86860289  0.50000000  0.14246870  1
  S  S25  1  0.13139711  0.50000000  0.85753130  1
  S  S26  1  0.09658625  0.85322028  0.30034259  1
  S  S27  1  0.90341375  0.85322028  0.69965741  1
