# generated using pymatgen
data_Cu5Sn2Se7
_symmetry_space_group_name_H-M   'P 1'
_cell_length_a   12.67388267
_cell_length_b   5.65659006
_cell_length_c   8.96235613
_cell_angle_alpha   90.00000000
_cell_angle_beta   98.06743944
_cell_angle_gamma   90.00000000
_symmetry_Int_Tables_number   1
_chemical_formula_structural   Cu5Sn2Se7
_chemical_formula_sum   'Cu10 Sn4 Se14'
_cell_volume   636.16125102
_cell_formula_units_Z   2
loop_
 _symmetry_equiv_pos_site_id
 _symmetry_equiv_pos_as_xyz
  1  'x, y, z'
loop_
 _atom_site_type_symbol
 _atom_site_label
 _atom_site_symmetry_multiplicity
 _atom_site_fract_x
 _atom_site_fract_y
 _atom_site_fract_z
 _atom_site_occupancy
  Cu  Cu0  1  0.00000000  0.26831278  0.50000000  1
  Cu  Cu1  1  0.64585286  0.75890750  0.92571935  1
  Cu  Cu2  1  0.85414714  0.25890750  0.07428065  1
  Cu  Cu3  1  0.71277415  0.26520206  0.64284162  1
  Cu  Cu4  1  0.78722585  0.76520206  0.35715838  1
  Cu  Cu5  1  0.50000000  0.76831278  0.50000000  1
  Cu  Cu6  1  0.14585286  0.25890750  0.92571935  1
  Cu  Cu7  1  0.35414714  0.75890750  0.07428065  1
  Cu  Cu8  1  0.21277415  0.76520206  0.64284162  1
  Cu  Cu9  1  0.28722585  0.26520206  0.35715838  1
  Sn  Sn10  1  0.92516041  0.77652348  0.77560050  1
  Sn  Sn11  1  0.57483959  0.27652348  0.22439950  1
  Sn  Sn12  1  0.42516041  0.27652348  0.77560050  1
  Sn  Sn13  1  0.07483959  0.77652348  0.22439950  1
  Se  Se14  1  0.85192649  0.49887929  0.55828678  1
  Se  Se15  1  0.64807351  0.99887929  0.44171322  1
  Se  Se16  1  0.00000000  0.48914976  0.00000000  1
  Se  Se17  1  0.57998448  0.53142389  0.70868071  1
  Se  Se18  1  0.92001552  0.03142389  0.29131929  1
  Se  Se19  1  0.77652655  0.03153252  0.86097965  1
  Se  Se20  1  0.72347345  0.53153252  0.13902035  1
  Se  Se21  1  0.35192649  0.99887929  0.55828678  1
  Se  Se22  1  0.14807351  0.49887929  0.44171322  1
  Se  Se23  1  0.50000000  0.98914976  0.00000000  1
  Se  Se24  1  0.07998448  0.03142389  0.70868071  1
  Se  Se25  1  0.42001552  0.53142389  0.29131929  1
  Se  Se26  1  0.27652655  0.53153252  0.86097965  1
  Se  Se27  1  0.22347345  0.03153252  0.13902035  1
