# generated using pymatgen
data_Ti5Nb5Ge6
_symmetry_space_group_name_H-M   'P 1'
_cell_length_a   7.67334600
_cell_length_b   13.27256800
_cell_length_c   5.34214700
_cell_angle_alpha   90.00000000
_cell_angle_beta   90.00000000
_cell_angle_gamma   90.00000000
_symmetry_Int_Tables_number   1
_chemical_formula_structural   Ti5Nb5Ge6
_chemical_formula_sum   'Ti10 Nb10 Ge12'
_cell_volume   544.07099633
_cell_formula_units_Z   2
loop_
 _symmetry_equiv_pos_site_id
 _symmetry_equiv_pos_as_xyz
  1  'x, y, z'
loop_
 _atom_site_type_symbol
 _atom_site_label
 _atom_site_symmetry_multiplicity
 _atom_site_fract_x
 _atom_site_fract_y
 _atom_site_fract_z
 _atom_site_occupancy
  Ti  Ti0  1  0.62801000  0.37167200  0.50000000  1
  Ti  Ti1  1  0.62801000  0.62832800  0.50000000  1
  Ti  Ti2  1  0.25657600  0.00000000  0.00000000  1
  Ti  Ti3  1  0.37290150  0.62739650  0.00000000  1
  Ti  Ti4  1  0.37290150  0.37260350  0.00000000  1
  Ti  Ti5  1  0.12801000  0.87167200  0.50000000  1
  Ti  Ti6  1  0.12801000  0.12832800  0.50000000  1
  Ti  Ti7  1  0.75657600  0.50000000  0.00000000  1
  Ti  Ti8  1  0.87290150  0.12739650  0.00000000  1
  Ti  Ti9  1  0.87290150  0.87260350  0.00000000  1
  Nb  Nb10  1  0.50055050  0.83346750  0.75113900  1
  Nb  Nb11  1  0.50055050  0.16653250  0.75113900  1
  Nb  Nb12  1  0.50055050  0.16653250  0.24886100  1
  Nb  Nb13  1  0.50055050  0.83346750  0.24886100  1
  Nb  Nb14  1  0.74102500  0.00000000  0.50000000  1
  Nb  Nb15  1  0.00055050  0.33346750  0.75113900  1
  Nb  Nb16  1  0.00055050  0.66653250  0.75113900  1
  Nb  Nb17  1  0.00055050  0.66653250  0.24886100  1
  Nb  Nb18  1  0.00055050  0.33346750  0.24886100  1
  Nb  Nb19  1  0.24102500  0.50000000  0.50000000  1
  Ge  Ge20  1  0.38094000  0.00000000  0.50000000  1
  Ge  Ge21  1  0.30902150  0.69402050  0.50000000  1
  Ge  Ge22  1  0.30902150  0.30597950  0.50000000  1
  Ge  Ge23  1  0.61608500  0.00000000  0.00000000  1
  Ge  Ge24  1  0.19165150  0.80876450  0.00000000  1
  Ge  Ge25  1  0.19165150  0.19123550  0.00000000  1
  Ge  Ge26  1  0.88094000  0.50000000  0.50000000  1
  Ge  Ge27  1  0.80902150  0.19402050  0.50000000  1
  Ge  Ge28  1  0.80902150  0.80597950  0.50000000  1
  Ge  Ge29  1  0.11608500  0.50000000  0.00000000  1
  Ge  Ge30  1  0.69165150  0.30876450  0.00000000  1
  Ge  Ge31  1  0.69165150  0.69123550  0.00000000  1
