# generated using pymatgen
data_Sr(CaSi3)2
_symmetry_space_group_name_H-M   'P 1'
_cell_length_a   12.20467400
_cell_length_b   3.96941600
_cell_length_c   8.33288661
_cell_angle_alpha   90.00000000
_cell_angle_beta   92.95841642
_cell_angle_gamma   90.00000000
_symmetry_Int_Tables_number   1
_chemical_formula_structural   Sr(CaSi3)2
_chemical_formula_sum   'Sr2 Ca4 Si12'
_cell_volume   403.15224435
_cell_formula_units_Z   2
loop_
 _symmetry_equiv_pos_site_id
 _symmetry_equiv_pos_as_xyz
  1  'x, y, z'
loop_
 _atom_site_type_symbol
 _atom_site_label
 _atom_site_symmetry_multiplicity
 _atom_site_fract_x
 _atom_site_fract_y
 _atom_site_fract_z
 _atom_site_occupancy
  Sr  Sr0  1  0.00000000  0.50000000  0.00000000  1
  Sr  Sr1  1  0.50000000  0.00000000  0.00000000  1
  Ca  Ca2  1  0.66940600  0.50000000  0.33468800  1
  Ca  Ca3  1  0.83059400  0.00000000  0.66531200  1
  Ca  Ca4  1  0.16940600  0.00000000  0.33468800  1
  Ca  Ca5  1  0.33059400  0.50000000  0.66531200  1
  Si  Si6  1  0.91808000  0.00000000  0.25798900  1
  Si  Si7  1  0.58592900  0.00000000  0.57734000  1
  Si  Si8  1  0.74705200  0.50000000  0.91505900  1
  Si  Si9  1  0.91407100  0.50000000  0.42266000  1
  Si  Si10  1  0.58192000  0.50000000  0.74201100  1
  Si  Si11  1  0.75294800  0.00000000  0.08494100  1
  Si  Si12  1  0.41808000  0.50000000  0.25798900  1
  Si  Si13  1  0.08592900  0.50000000  0.57734000  1
  Si  Si14  1  0.24705200  0.00000000  0.91505900  1
  Si  Si15  1  0.41407100  0.00000000  0.42266000  1
  Si  Si16  1  0.08192000  0.00000000  0.74201100  1
  Si  Si17  1  0.25294800  0.50000000  0.08494100  1
