# generated using pymatgen
data_Rb2Te2Pt
_symmetry_space_group_name_H-M   'P 1'
_cell_length_a   4.02150548
_cell_length_b   8.20428212
_cell_length_c   10.75223364
_cell_angle_alpha   90.00000000
_cell_angle_beta   90.00000000
_cell_angle_gamma   90.00000000
_symmetry_Int_Tables_number   1
_chemical_formula_structural   Rb2Te2Pt
_chemical_formula_sum   'Rb4 Te4 Pt2'
_cell_volume   354.75452493
_cell_formula_units_Z   2
loop_
 _symmetry_equiv_pos_site_id
 _symmetry_equiv_pos_as_xyz
  1  'x, y, z'
loop_
 _atom_site_type_symbol
 _atom_site_label
 _atom_site_symmetry_multiplicity
 _atom_site_fract_x
 _atom_site_fract_y
 _atom_site_fract_z
 _atom_site_occupancy
  Rb  Rb0  1  0.00000000  0.50000000  0.20150464  1
  Rb  Rb1  1  0.00000000  0.50000000  0.79849536  1
  Rb  Rb2  1  0.50000000  0.00000000  0.70150464  1
  Rb  Rb3  1  0.50000000  0.00000000  0.29849536  1
  Te  Te4  1  0.50000000  0.21235375  0.00000000  1
  Te  Te5  1  0.50000000  0.78764625  0.00000000  1
  Te  Te6  1  0.00000000  0.71235375  0.50000000  1
  Te  Te7  1  0.00000000  0.28764625  0.50000000  1
  Pt  Pt8  1  0.00000000  0.00000000  0.00000000  1
  Pt  Pt9  1  0.50000000  0.50000000  0.50000000  1
