# generated using pymatgen
data_ZnHgSe2
_symmetry_space_group_name_H-M   'P 1'
_cell_length_a   4.25445405
_cell_length_b   4.25445405
_cell_length_c   20.89389805
_cell_angle_alpha   90.00000000
_cell_angle_beta   90.00000000
_cell_angle_gamma   120.00000000
_symmetry_Int_Tables_number   1
_chemical_formula_structural   ZnHgSe2
_chemical_formula_sum   'Zn3 Hg3 Se6'
_cell_volume   327.51996386
_cell_formula_units_Z   3
loop_
 _symmetry_equiv_pos_site_id
 _symmetry_equiv_pos_as_xyz
  1  'x, y, z'
loop_
 _atom_site_type_symbol
 _atom_site_label
 _atom_site_symmetry_multiplicity
 _atom_site_fract_x
 _atom_site_fract_y
 _atom_site_fract_z
 _atom_site_occupancy
  Zn  Zn0  1  0.33333333  0.66666667  0.16746267  1
  Zn  Zn1  1  0.00000000  0.00000000  0.50079600  1
  Zn  Zn2  1  0.66666667  0.33333333  0.83412933  1
  Hg  Hg3  1  0.66666667  0.33333333  0.33143333  1
  Hg  Hg4  1  0.33333333  0.66666667  0.66476667  1
  Hg  Hg5  1  0.00000000  0.00000000  0.99810000  1
  Se  Se6  1  0.66666667  0.33333333  0.20241733  1
  Se  Se7  1  0.33333333  0.66666667  0.04868667  1
  Se  Se8  1  0.33333333  0.66666667  0.53575067  1
  Se  Se9  1  0.00000000  0.00000000  0.38202000  1
  Se  Se10  1  0.00000000  0.00000000  0.86908400  1
  Se  Se11  1  0.66666667  0.33333333  0.71535333  1
