# generated using pymatgen
data_Ti2VTe4
_symmetry_space_group_name_H-M   'P 1'
_cell_length_a   14.52659745
_cell_length_b   3.92248809
_cell_length_c   6.93323245
_cell_angle_alpha   90.00000000
_cell_angle_beta   117.56544157
_cell_angle_gamma   90.00000000
_symmetry_Int_Tables_number   1
_chemical_formula_structural   Ti2VTe4
_chemical_formula_sum   'Ti4 V2 Te8'
_cell_volume   350.21249672
_cell_formula_units_Z   2
loop_
 _symmetry_equiv_pos_site_id
 _symmetry_equiv_pos_as_xyz
  1  'x, y, z'
loop_
 _atom_site_type_symbol
 _atom_site_label
 _atom_site_symmetry_multiplicity
 _atom_site_fract_x
 _atom_site_fract_y
 _atom_site_fract_z
 _atom_site_occupancy
  Ti  Ti0  1  0.74807172  0.00000000  0.70435723  1
  Ti  Ti1  1  0.75192828  0.50000000  0.29564277  1
  Ti  Ti2  1  0.24807172  0.50000000  0.70435723  1
  Ti  Ti3  1  0.25192828  0.00000000  0.29564277  1
  V  V4  1  0.00000000  0.00000000  0.00000000  1
  V  V5  1  0.50000000  0.50000000  0.00000000  1
  Te  Te6  1  0.88937763  0.00000000  0.54787594  1
  Te  Te7  1  0.61062237  0.50000000  0.45212406  1
  Te  Te8  1  0.63523138  0.00000000  0.97214655  1
  Te  Te9  1  0.86476862  0.50000000  0.02785345  1
  Te  Te10  1  0.38937763  0.50000000  0.54787594  1
  Te  Te11  1  0.11062237  0.00000000  0.45212406  1
  Te  Te12  1  0.13523138  0.50000000  0.97214655  1
  Te  Te13  1  0.36476862  0.00000000  0.02785345  1
