# generated using pymatgen
data_V2CrTe4
_symmetry_space_group_name_H-M   'P 1'
_cell_length_a   13.94464800
_cell_length_b   4.02479400
_cell_length_c   7.02244412
_cell_angle_alpha   90.00000000
_cell_angle_beta   118.90688246
_cell_angle_gamma   90.00000000
_symmetry_Int_Tables_number   1
_chemical_formula_structural   V2CrTe4
_chemical_formula_sum   'V4 Cr2 Te8'
_cell_volume   345.02396025
_cell_formula_units_Z   2
loop_
 _symmetry_equiv_pos_site_id
 _symmetry_equiv_pos_as_xyz
  1  'x, y, z'
loop_
 _atom_site_type_symbol
 _atom_site_label
 _atom_site_symmetry_multiplicity
 _atom_site_fract_x
 _atom_site_fract_y
 _atom_site_fract_z
 _atom_site_occupancy
  V  V0  1  0.24181200  0.50000000  0.72289600  1
  V  V1  1  0.49744800  0.50000000  0.99906000  1
  V  V2  1  0.74181200  0.00000000  0.72289600  1
  V  V3  1  0.99744800  0.00000000  0.99906000  1
  Cr  Cr4  1  0.26047200  0.00000000  0.28031500  1
  Cr  Cr5  1  0.76047200  0.50000000  0.28031500  1
  Te  Te6  1  0.11910400  0.00000000  0.44922500  1
  Te  Te7  1  0.38297000  0.50000000  0.54919400  1
  Te  Te8  1  0.36693700  0.00000000  0.02863300  1
  Te  Te9  1  0.13125800  0.50000000  0.97067800  1
  Te  Te10  1  0.61910400  0.50000000  0.44922500  1
  Te  Te11  1  0.88297000  0.00000000  0.54919400  1
  Te  Te12  1  0.86693700  0.50000000  0.02863300  1
  Te  Te13  1  0.63125800  0.00000000  0.97067800  1
