# generated using pymatgen
data_Nb2(CrSi)3
_symmetry_space_group_name_H-M   'P 1'
_cell_length_a   7.13819600
_cell_length_b   12.65287800
_cell_length_c   4.86236600
_cell_angle_alpha   90.00000000
_cell_angle_beta   90.00000000
_cell_angle_gamma   90.00000000
_symmetry_Int_Tables_number   1
_chemical_formula_structural   Nb2(CrSi)3
_chemical_formula_sum   'Nb8 Cr12 Si12'
_cell_volume   439.16268850
_cell_formula_units_Z   4
loop_
 _symmetry_equiv_pos_site_id
 _symmetry_equiv_pos_as_xyz
  1  'x, y, z'
loop_
 _atom_site_type_symbol
 _atom_site_label
 _atom_site_symmetry_multiplicity
 _atom_site_fract_x
 _atom_site_fract_y
 _atom_site_fract_z
 _atom_site_occupancy
  Nb  Nb0  1  0.23321700  0.00000000  0.50000000  1
  Nb  Nb1  1  0.11971550  0.12113450  0.00000000  1
  Nb  Nb2  1  0.61971550  0.37886550  0.00000000  1
  Nb  Nb3  1  0.77733200  0.00000000  0.00000000  1
  Nb  Nb4  1  0.73321700  0.50000000  0.50000000  1
  Nb  Nb5  1  0.61971550  0.62113450  0.00000000  1
  Nb  Nb6  1  0.11971550  0.87886550  0.00000000  1
  Nb  Nb7  1  0.27733200  0.50000000  0.00000000  1
  Cr  Cr8  1  0.99788650  0.33540750  0.25241100  1
  Cr  Cr9  1  0.49788650  0.16459250  0.25241100  1
  Cr  Cr10  1  0.49788650  0.16459250  0.74758900  1
  Cr  Cr11  1  0.99788650  0.33540750  0.74758900  1
  Cr  Cr12  1  0.37656000  0.37257000  0.50000000  1
  Cr  Cr13  1  0.87656000  0.12743000  0.50000000  1
  Cr  Cr14  1  0.49788650  0.83540750  0.25241100  1
  Cr  Cr15  1  0.99788650  0.66459250  0.25241100  1
  Cr  Cr16  1  0.99788650  0.66459250  0.74758900  1
  Cr  Cr17  1  0.49788650  0.83540750  0.74758900  1
  Cr  Cr18  1  0.87656000  0.87257000  0.50000000  1
  Cr  Cr19  1  0.37656000  0.62743000  0.50000000  1
  Si  Si20  1  0.19733100  0.20604600  0.50000000  1
  Si  Si21  1  0.69733100  0.29395400  0.50000000  1
  Si  Si22  1  0.61000200  0.00000000  0.50000000  1
  Si  Si23  1  0.29478700  0.29648500  0.00000000  1
  Si  Si24  1  0.79478700  0.20351500  0.00000000  1
  Si  Si25  1  0.41133100  0.00000000  0.00000000  1
  Si  Si26  1  0.69733100  0.70604600  0.50000000  1
  Si  Si27  1  0.19733100  0.79395400  0.50000000  1
  Si  Si28  1  0.11000200  0.50000000  0.50000000  1
  Si  Si29  1  0.79478700  0.79648500  0.00000000  1
  Si  Si30  1  0.29478700  0.70351500  0.00000000  1
  Si  Si31  1  0.91133100  0.50000000  0.00000000  1
