# generated using pymatgen
data_ZrCu
_symmetry_space_group_name_H-M   'P 1'
_cell_length_a   6.56275297
_cell_length_b   8.23238870
_cell_length_c   5.26934106
_cell_angle_alpha   90.00000000
_cell_angle_beta   102.84023271
_cell_angle_gamma   90.00000000
_symmetry_Int_Tables_number   1
_chemical_formula_structural   ZrCu
_chemical_formula_sum   'Zr8 Cu8'
_cell_volume   277.56836956
_cell_formula_units_Z   8
loop_
 _symmetry_equiv_pos_site_id
 _symmetry_equiv_pos_as_xyz
  1  'x, y, z'
loop_
 _atom_site_type_symbol
 _atom_site_label
 _atom_site_symmetry_multiplicity
 _atom_site_fract_x
 _atom_site_fract_y
 _atom_site_fract_z
 _atom_site_occupancy
  Zr  Zr0  1  0.09156356  0.00000000  0.98985520  1
  Zr  Zr1  1  0.58938443  0.00000000  0.02184602  1
  Zr  Zr2  1  0.45493677  0.72181244  0.40986087  1
  Zr  Zr3  1  0.45493677  0.27818756  0.40986087  1
  Zr  Zr4  1  0.59156356  0.50000000  0.98985520  1
  Zr  Zr5  1  0.08938443  0.50000000  0.02184602  1
  Zr  Zr6  1  0.95493677  0.22181244  0.40986087  1
  Zr  Zr7  1  0.95493677  0.77818756  0.40986087  1
  Cu  Cu8  1  0.28313829  0.00000000  0.54793125  1
  Cu  Cu9  1  0.69796108  0.00000000  0.56480113  1
  Cu  Cu10  1  0.30230005  0.25015107  0.85015532  1
  Cu  Cu11  1  0.30230005  0.74984893  0.85015532  1
  Cu  Cu12  1  0.78313829  0.50000000  0.54793125  1
  Cu  Cu13  1  0.19796108  0.50000000  0.56480113  1
  Cu  Cu14  1  0.80230005  0.75015107  0.85015532  1
  Cu  Cu15  1  0.80230005  0.24984893  0.85015532  1
