# generated using pymatgen
data_Y5S7
_symmetry_space_group_name_H-M   'P 1'
_cell_length_a   12.84801472
_cell_length_b   3.80983874
_cell_length_c   11.60436702
_cell_angle_alpha   90.00000000
_cell_angle_beta   104.68490527
_cell_angle_gamma   90.00000000
_symmetry_Int_Tables_number   1
_chemical_formula_structural   Y5S7
_chemical_formula_sum   'Y10 S14'
_cell_volume   549.46595029
_cell_formula_units_Z   2
loop_
 _symmetry_equiv_pos_site_id
 _symmetry_equiv_pos_as_xyz
  1  'x, y, z'
loop_
 _atom_site_type_symbol
 _atom_site_label
 _atom_site_symmetry_multiplicity
 _atom_site_fract_x
 _atom_site_fract_y
 _atom_site_fract_z
 _atom_site_occupancy
  Y  Y0  1  0.61174575  0.50000000  0.42152627  1
  Y  Y1  1  0.88825425  0.00000000  0.57847373  1
  Y  Y2  1  0.80053571  0.50000000  0.18774662  1
  Y  Y3  1  0.69946429  0.00000000  0.81225338  1
  Y  Y4  1  0.00000000  0.00000000  0.00000000  1
  Y  Y5  1  0.11174575  0.00000000  0.42152627  1
  Y  Y6  1  0.38825425  0.50000000  0.57847373  1
  Y  Y7  1  0.30053571  0.00000000  0.18774662  1
  Y  Y8  1  0.19946429  0.50000000  0.81225338  1
  Y  Y9  1  0.50000000  0.50000000  0.00000000  1
  S  S10  1  0.75935729  0.50000000  0.64699891  1
  S  S11  1  0.74064271  0.00000000  0.35300109  1
  S  S12  1  0.95858705  0.00000000  0.21488217  1
  S  S13  1  0.54141295  0.50000000  0.78511783  1
  S  S14  1  0.65878574  0.00000000  0.05139814  1
  S  S15  1  0.00000000  0.50000000  0.50000000  1
  S  S16  1  0.84121426  0.50000000  0.94860186  1
  S  S17  1  0.25935729  0.00000000  0.64699891  1
  S  S18  1  0.24064271  0.50000000  0.35300109  1
  S  S19  1  0.45858705  0.50000000  0.21488217  1
  S  S20  1  0.04141295  0.00000000  0.78511783  1
  S  S21  1  0.15878574  0.50000000  0.05139814  1
  S  S22  1  0.50000000  0.00000000  0.50000000  1
  S  S23  1  0.34121426  0.00000000  0.94860186  1
