# generated using pymatgen
data_KNa4Cl5
_symmetry_space_group_name_H-M   'P 1'
_cell_length_a   4.02669152
_cell_length_b   5.81168156
_cell_length_c   20.37132992
_cell_angle_alpha   90.00000000
_cell_angle_beta   90.00000000
_cell_angle_gamma   90.00000000
_symmetry_Int_Tables_number   1
_chemical_formula_structural   KNa4Cl5
_chemical_formula_sum   'K2 Na8 Cl10'
_cell_volume   476.72678375
_cell_formula_units_Z   2
loop_
 _symmetry_equiv_pos_site_id
 _symmetry_equiv_pos_as_xyz
  1  'x, y, z'
loop_
 _atom_site_type_symbol
 _atom_site_label
 _atom_site_symmetry_multiplicity
 _atom_site_fract_x
 _atom_site_fract_y
 _atom_site_fract_z
 _atom_site_occupancy
  K  K0  1  0.00000000  0.00000000  0.00000000  1
  K  K1  1  0.50000000  0.50000000  0.50000000  1
  Na  Na2  1  0.00000000  0.00000000  0.60340797  1
  Na  Na3  1  0.50000000  0.50000000  0.70469294  1
  Na  Na4  1  0.00000000  0.00000000  0.79530706  1
  Na  Na5  1  0.50000000  0.50000000  0.89659203  1
  Na  Na6  1  0.50000000  0.50000000  0.10340797  1
  Na  Na7  1  0.00000000  0.00000000  0.20469294  1
  Na  Na8  1  0.50000000  0.50000000  0.29530706  1
  Na  Na9  1  0.00000000  0.00000000  0.39659203  1
  Cl  Cl10  1  0.50000000  0.00000000  0.88803355  1
  Cl  Cl11  1  0.50000000  0.00000000  0.69906592  1
  Cl  Cl12  1  0.00000000  0.50000000  0.80093408  1
  Cl  Cl13  1  0.00000000  0.50000000  0.00000000  1
  Cl  Cl14  1  0.00000000  0.50000000  0.61196645  1
  Cl  Cl15  1  0.00000000  0.50000000  0.38803355  1
  Cl  Cl16  1  0.00000000  0.50000000  0.19906592  1
  Cl  Cl17  1  0.50000000  0.00000000  0.30093408  1
  Cl  Cl18  1  0.50000000  0.00000000  0.50000000  1
  Cl  Cl19  1  0.50000000  0.00000000  0.11196645  1
