# generated using pymatgen
data_Cs2S3
_symmetry_space_group_name_H-M   'P 1'
_cell_length_a   7.75212942
_cell_length_b   11.05195770
_cell_length_c   8.21402104
_cell_angle_alpha   90.00000000
_cell_angle_beta   90.00000000
_cell_angle_gamma   90.00000000
_symmetry_Int_Tables_number   1
_chemical_formula_structural   Cs2S3
_chemical_formula_sum   'Cs8 S12'
_cell_volume   703.74616228
_cell_formula_units_Z   4
loop_
 _symmetry_equiv_pos_site_id
 _symmetry_equiv_pos_as_xyz
  1  'x, y, z'
loop_
 _atom_site_type_symbol
 _atom_site_label
 _atom_site_symmetry_multiplicity
 _atom_site_fract_x
 _atom_site_fract_y
 _atom_site_fract_z
 _atom_site_occupancy
  Cs  Cs0  1  0.50000000  0.39717274  0.96981242  1
  Cs  Cs1  1  0.50000000  0.60282726  0.46981242  1
  Cs  Cs2  1  0.50000000  0.92996877  0.69031842  1
  Cs  Cs3  1  0.50000000  0.07003123  0.19031842  1
  Cs  Cs4  1  0.00000000  0.89717274  0.96981242  1
  Cs  Cs5  1  0.00000000  0.10282726  0.46981242  1
  Cs  Cs6  1  0.00000000  0.42996877  0.69031842  1
  Cs  Cs7  1  0.00000000  0.57003123  0.19031842  1
  S  S8  1  0.21714590  0.16509513  0.85358831  1
  S  S9  1  0.78285410  0.16509513  0.85358831  1
  S  S10  1  0.78285410  0.83490487  0.35358831  1
  S  S11  1  0.21714590  0.83490487  0.35358831  1
  S  S12  1  0.50000000  0.70587199  0.99219454  1
  S  S13  1  0.50000000  0.29412801  0.49219454  1
  S  S14  1  0.71714590  0.66509513  0.85358831  1
  S  S15  1  0.28285410  0.66509513  0.85358831  1
  S  S16  1  0.28285410  0.33490487  0.35358831  1
  S  S17  1  0.71714590  0.33490487  0.35358831  1
  S  S18  1  0.00000000  0.20587199  0.99219454  1
  S  S19  1  0.00000000  0.79412801  0.49219454  1
