# generated using pymatgen
data_AgSbS2
_symmetry_space_group_name_H-M   'P 1'
_cell_length_a   14.90902200
_cell_length_b   5.79649000
_cell_length_c   13.91493362
_cell_angle_alpha   90.00000000
_cell_angle_beta   102.72223915
_cell_angle_gamma   90.00000000
_symmetry_Int_Tables_number   1
_chemical_formula_structural   AgSbS2
_chemical_formula_sum   'Ag8 Sb8 S16'
_cell_volume   1173.00540857
_cell_formula_units_Z   8
loop_
 _symmetry_equiv_pos_site_id
 _symmetry_equiv_pos_as_xyz
  1  'x, y, z'
loop_
 _atom_site_type_symbol
 _atom_site_label
 _atom_site_symmetry_multiplicity
 _atom_site_fract_x
 _atom_site_fract_y
 _atom_site_fract_z
 _atom_site_occupancy
  Ag  Ag0  1  0.99367650  0.00556650  0.99639600  1
  Ag  Ag1  1  0.99426350  0.49418250  0.49680500  1
  Ag  Ag2  1  0.99426350  0.50581750  0.99680500  1
  Ag  Ag3  1  0.99367650  0.99443350  0.49639600  1
  Ag  Ag4  1  0.49367650  0.50556650  0.99639600  1
  Ag  Ag5  1  0.49426350  0.99418250  0.49680500  1
  Ag  Ag6  1  0.49426350  0.00581750  0.99680500  1
  Ag  Ag7  1  0.49367650  0.49443350  0.49639600  1
  Sb  Sb8  1  0.69827900  0.07819200  0.14025000  1
  Sb  Sb9  1  0.79152900  0.57164400  0.34162200  1
  Sb  Sb10  1  0.69827900  0.92180800  0.64025000  1
  Sb  Sb11  1  0.79152900  0.42835600  0.84162200  1
  Sb  Sb12  1  0.19827900  0.57819200  0.14025000  1
  Sb  Sb13  1  0.29152900  0.07164400  0.34162200  1
  Sb  Sb14  1  0.19827900  0.42180800  0.64025000  1
  Sb  Sb15  1  0.29152900  0.92835600  0.84162200  1
  S  S16  1  0.68862800  0.08966300  0.80129300  1
  S  S17  1  0.54522500  0.74299000  0.63582500  1
  S  S18  1  0.94714050  0.25608750  0.85686600  1
  S  S19  1  0.94714050  0.74391250  0.35686600  1
  S  S20  1  0.80545950  0.59068150  0.68094500  1
  S  S21  1  0.80545950  0.40931850  0.18094500  1
  S  S22  1  0.68862800  0.91033700  0.30129300  1
  S  S23  1  0.54522500  0.25701000  0.13582500  1
  S  S24  1  0.18862800  0.58966300  0.80129300  1
  S  S25  1  0.04522500  0.24299000  0.63582500  1
  S  S26  1  0.44714050  0.75608750  0.85686600  1
  S  S27  1  0.44714050  0.24391250  0.35686600  1
  S  S28  1  0.30545950  0.09068150  0.68094500  1
  S  S29  1  0.30545950  0.90931850  0.18094500  1
  S  S30  1  0.18862800  0.41033700  0.30129300  1
  S  S31  1  0.04522500  0.75701000  0.13582500  1
