# generated using pymatgen
data_Ti2Si6Mo
_symmetry_space_group_name_H-M   'P 1'
_cell_length_a   4.68656558
_cell_length_b   8.12346738
_cell_length_c   6.48611588
_cell_angle_alpha   90.00000000
_cell_angle_beta   90.00000000
_cell_angle_gamma   90.00000000
_symmetry_Int_Tables_number   1
_chemical_formula_structural   Ti2Si6Mo
_chemical_formula_sum   'Ti4 Si12 Mo2'
_cell_volume   246.93397240
_cell_formula_units_Z   2
loop_
 _symmetry_equiv_pos_site_id
 _symmetry_equiv_pos_as_xyz
  1  'x, y, z'
loop_
 _atom_site_type_symbol
 _atom_site_label
 _atom_site_symmetry_multiplicity
 _atom_site_fract_x
 _atom_site_fract_y
 _atom_site_fract_z
 _atom_site_occupancy
  Ti  Ti0  1  0.75000000  0.25000000  0.66622900  1
  Ti  Ti1  1  0.25000000  0.25000000  0.33377100  1
  Ti  Ti2  1  0.25000000  0.75000000  0.66622900  1
  Ti  Ti3  1  0.75000000  0.75000000  0.33377100  1
  Si  Si4  1  0.50000000  0.33436033  0.00000000  1
  Si  Si5  1  0.23644591  0.07976028  0.66732580  1
  Si  Si6  1  0.76355409  0.07976028  0.33267420  1
  Si  Si7  1  0.00000000  0.16563967  0.00000000  1
  Si  Si8  1  0.26355409  0.42023972  0.66732580  1
  Si  Si9  1  0.73644591  0.42023972  0.33267420  1
  Si  Si10  1  0.00000000  0.83436033  0.00000000  1
  Si  Si11  1  0.73644591  0.57976028  0.66732580  1
  Si  Si12  1  0.26355409  0.57976028  0.33267420  1
  Si  Si13  1  0.50000000  0.66563967  0.00000000  1
  Si  Si14  1  0.76355409  0.92023972  0.66732580  1
  Si  Si15  1  0.23644591  0.92023972  0.33267420  1
  Mo  Mo16  1  0.50000000  0.00000000  0.00000000  1
  Mo  Mo17  1  0.00000000  0.50000000  0.00000000  1
