# generated using pymatgen
data_Cs2Pt3S4
_symmetry_space_group_name_H-M   'P 1'
_cell_length_a   6.46332253
_cell_length_b   10.99668799
_cell_length_c   13.87894335
_cell_angle_alpha   90.00000000
_cell_angle_beta   90.00000000
_cell_angle_gamma   90.00000000
_symmetry_Int_Tables_number   1
_chemical_formula_structural   Cs2Pt3S4
_chemical_formula_sum   'Cs8 Pt12 S16'
_cell_volume   986.44785858
_cell_formula_units_Z   4
loop_
 _symmetry_equiv_pos_site_id
 _symmetry_equiv_pos_as_xyz
  1  'x, y, z'
loop_
 _atom_site_type_symbol
 _atom_site_label
 _atom_site_symmetry_multiplicity
 _atom_site_fract_x
 _atom_site_fract_y
 _atom_site_fract_z
 _atom_site_occupancy
  Cs  Cs0  1  0.50000000  0.00000000  0.15408657  1
  Cs  Cs1  1  0.00000000  0.00000000  0.34591343  1
  Cs  Cs2  1  0.50000000  0.50000000  0.65408657  1
  Cs  Cs3  1  0.00000000  0.50000000  0.84591343  1
  Cs  Cs4  1  0.00000000  0.00000000  0.65408657  1
  Cs  Cs5  1  0.50000000  0.00000000  0.84591343  1
  Cs  Cs6  1  0.00000000  0.50000000  0.15408657  1
  Cs  Cs7  1  0.50000000  0.50000000  0.34591343  1
  Pt  Pt8  1  0.75000000  0.25000000  0.00000000  1
  Pt  Pt9  1  0.00000000  0.00000000  0.00000000  1
  Pt  Pt10  1  0.75000000  0.75000000  0.00000000  1
  Pt  Pt11  1  0.75000000  0.75000000  0.50000000  1
  Pt  Pt12  1  0.00000000  0.50000000  0.50000000  1
  Pt  Pt13  1  0.75000000  0.25000000  0.50000000  1
  Pt  Pt14  1  0.25000000  0.25000000  0.50000000  1
  Pt  Pt15  1  0.50000000  0.00000000  0.50000000  1
  Pt  Pt16  1  0.25000000  0.75000000  0.50000000  1
  Pt  Pt17  1  0.25000000  0.75000000  0.00000000  1
  Pt  Pt18  1  0.50000000  0.50000000  0.00000000  1
  Pt  Pt19  1  0.25000000  0.25000000  0.00000000  1
  S  S20  1  0.00000000  0.66793492  0.39413279  1
  S  S21  1  0.00000000  0.33206508  0.39413279  1
  S  S22  1  0.50000000  0.33206508  0.10586721  1
  S  S23  1  0.50000000  0.66793492  0.10586721  1
  S  S24  1  0.00000000  0.16793492  0.89413279  1
  S  S25  1  0.00000000  0.83206508  0.89413279  1
  S  S26  1  0.50000000  0.83206508  0.60586721  1
  S  S27  1  0.50000000  0.16793492  0.60586721  1
  S  S28  1  0.50000000  0.66793492  0.89413279  1
  S  S29  1  0.50000000  0.33206508  0.89413279  1
  S  S30  1  0.00000000  0.33206508  0.60586721  1
  S  S31  1  0.00000000  0.66793492  0.60586721  1
  S  S32  1  0.50000000  0.16793492  0.39413279  1
  S  S33  1  0.50000000  0.83206508  0.39413279  1
  S  S34  1  0.00000000  0.83206508  0.10586721  1
  S  S35  1  0.00000000  0.16793492  0.10586721  1
