# generated using pymatgen
data_Zr5(Te2P)2
_symmetry_space_group_name_H-M   'P 1'
_cell_length_a   3.82720574
_cell_length_b   3.82720574
_cell_length_c   63.13464414
_cell_angle_alpha   90.00000000
_cell_angle_beta   90.00000000
_cell_angle_gamma   120.00000000
_symmetry_Int_Tables_number   1
_chemical_formula_structural   Zr5(Te2P)2
_chemical_formula_sum   'Zr15 Te12 P6'
_cell_volume   800.86992847
_cell_formula_units_Z   3
loop_
 _symmetry_equiv_pos_site_id
 _symmetry_equiv_pos_as_xyz
  1  'x, y, z'
loop_
 _atom_site_type_symbol
 _atom_site_label
 _atom_site_symmetry_multiplicity
 _atom_site_fract_x
 _atom_site_fract_y
 _atom_site_fract_z
 _atom_site_occupancy
  Zr  Zr0  1  0.33333333  0.66666667  0.22965967  1
  Zr  Zr1  1  0.00000000  0.00000000  0.05941200  1
  Zr  Zr2  1  0.33333333  0.66666667  0.10367367  1
  Zr  Zr3  1  0.66666667  0.33333333  0.27392133  1
  Zr  Zr4  1  0.33333333  0.66666667  0.16666667  1
  Zr  Zr5  1  0.00000000  0.00000000  0.56299300  1
  Zr  Zr6  1  0.66666667  0.33333333  0.39274533  1
  Zr  Zr7  1  0.00000000  0.00000000  0.43700700  1
  Zr  Zr8  1  0.33333333  0.66666667  0.60725467  1
  Zr  Zr9  1  1.00000000  1.00000000  0.50000000  1
  Zr  Zr10  1  0.66666667  0.33333333  0.89632633  1
  Zr  Zr11  1  0.33333333  0.66666667  0.72607867  1
  Zr  Zr12  1  0.66666667  0.33333333  0.77034033  1
  Zr  Zr13  1  0.00000000  0.00000000  0.94058800  1
  Zr  Zr14  1  0.66666667  0.33333333  0.83333333  1
  Te  Te15  1  0.66666667  0.33333333  0.19706033  1
  Te  Te16  1  0.33333333  0.66666667  0.02881067  1
  Te  Te17  1  0.00000000  0.00000000  0.13627300  1
  Te  Te18  1  0.33333333  0.66666667  0.30452267  1
  Te  Te19  1  0.33333333  0.66666667  0.53039367  1
  Te  Te20  1  0.00000000  0.00000000  0.36214400  1
  Te  Te21  1  0.66666667  0.33333333  0.46960633  1
  Te  Te22  1  0.00000000  0.00000000  0.63785600  1
  Te  Te23  1  0.00000000  0.00000000  0.86372700  1
  Te  Te24  1  0.66666667  0.33333333  0.69547733  1
  Te  Te25  1  0.33333333  0.66666667  0.80293967  1
  Te  Te26  1  0.66666667  0.33333333  0.97118933  1
  P  P27  1  0.66666667  0.33333333  0.08180033  1
  P  P28  1  0.00000000  0.00000000  0.25153300  1
  P  P29  1  0.33333333  0.66666667  0.41513367  1
  P  P30  1  0.66666667  0.33333333  0.58486633  1
  P  P31  1  0.00000000  0.00000000  0.74846700  1
  P  P32  1  0.33333333  0.66666667  0.91819967  1
