# generated using pymatgen
data_Mn(CrSe2)2
_symmetry_space_group_name_H-M   'P 1'
_cell_length_a   13.75841138
_cell_length_b   3.70523482
_cell_length_c   6.41360487
_cell_angle_alpha   90.00000000
_cell_angle_beta   117.71403880
_cell_angle_gamma   90.00000000
_symmetry_Int_Tables_number   1
_chemical_formula_structural   Mn(CrSe2)2
_chemical_formula_sum   'Mn2 Cr4 Se8'
_cell_volume   289.44545496
_cell_formula_units_Z   2
loop_
 _symmetry_equiv_pos_site_id
 _symmetry_equiv_pos_as_xyz
  1  'x, y, z'
loop_
 _atom_site_type_symbol
 _atom_site_label
 _atom_site_symmetry_multiplicity
 _atom_site_fract_x
 _atom_site_fract_y
 _atom_site_fract_z
 _atom_site_occupancy
  Mn  Mn0  1  0.00000000  0.00000000  0.00000000  1
  Mn  Mn1  1  0.50000000  0.50000000  0.00000000  1
  Cr  Cr2  1  0.74169123  0.00000000  0.72952334  1
  Cr  Cr3  1  0.75830877  0.50000000  0.27047666  1
  Cr  Cr4  1  0.24169123  0.50000000  0.72952334  1
  Cr  Cr5  1  0.25830877  0.00000000  0.27047666  1
  Se  Se6  1  0.86903598  0.00000000  0.54184245  1
  Se  Se7  1  0.63096402  0.50000000  0.45815755  1
  Se  Se8  1  0.63675553  0.00000000  0.97519954  1
  Se  Se9  1  0.86324447  0.50000000  0.02480046  1
  Se  Se10  1  0.36903598  0.50000000  0.54184245  1
  Se  Se11  1  0.13096402  0.00000000  0.45815755  1
  Se  Se12  1  0.13675553  0.50000000  0.97519954  1
  Se  Se13  1  0.36324447  0.00000000  0.02480046  1
