# generated using pymatgen
data_Ca2CdAs2
_symmetry_space_group_name_H-M   'P 1'
_cell_length_a   21.49935094
_cell_length_b   4.29637513
_cell_length_c   14.36943386
_cell_angle_alpha   90.00000000
_cell_angle_beta   109.98123423
_cell_angle_gamma   90.00000000
_symmetry_Int_Tables_number   1
_chemical_formula_structural   Ca2CdAs2
_chemical_formula_sum   'Ca20 Cd10 As20'
_cell_volume   1247.39719326
_cell_formula_units_Z   10
loop_
 _symmetry_equiv_pos_site_id
 _symmetry_equiv_pos_as_xyz
  1  'x, y, z'
loop_
 _atom_site_type_symbol
 _atom_site_label
 _atom_site_symmetry_multiplicity
 _atom_site_fract_x
 _atom_site_fract_y
 _atom_site_fract_z
 _atom_site_occupancy
  Ca  Ca0  1  0.48127867  0.50000000  0.38562512  1
  Ca  Ca1  1  0.33856456  0.50000000  0.49849842  1
  Ca  Ca2  1  0.30970608  0.50000000  0.23024674  1
  Ca  Ca3  1  0.43556296  0.00000000  0.78773906  1
  Ca  Ca4  1  0.40540992  0.00000000  0.06388988  1
  Ca  Ca5  1  0.27698525  0.00000000  0.80714198  1
  Ca  Ca6  1  0.17336103  0.00000000  0.42065235  1
  Ca  Ca7  1  0.14681708  0.00000000  0.14790728  1
  Ca  Ca8  1  0.11505072  0.00000000  0.87680646  1
  Ca  Ca9  1  0.10590943  0.00000000  0.63349372  1
  Ca  Ca10  1  0.98127867  0.00000000  0.38562512  1
  Ca  Ca11  1  0.83856456  0.00000000  0.49849842  1
  Ca  Ca12  1  0.80970608  0.00000000  0.23024674  1
  Ca  Ca13  1  0.93556296  0.50000000  0.78773906  1
  Ca  Ca14  1  0.90540992  0.50000000  0.06388988  1
  Ca  Ca15  1  0.77698525  0.50000000  0.80714198  1
  Ca  Ca16  1  0.67336103  0.50000000  0.42065235  1
  Ca  Ca17  1  0.64681708  0.50000000  0.14790728  1
  Ca  Ca18  1  0.61505072  0.50000000  0.87680646  1
  Ca  Ca19  1  0.60590943  0.50000000  0.63349372  1
  Cd  Cd20  1  0.49994321  0.50000000  0.99985896  1
  Cd  Cd21  1  0.26523845  0.50000000  0.96764403  1
  Cd  Cd22  1  0.21846152  0.50000000  0.61665467  1
  Cd  Cd23  1  0.06585634  0.50000000  0.27012580  1
  Cd  Cd24  1  0.47262691  0.00000000  0.56172450  1
  Cd  Cd25  1  0.99994321  0.00000000  0.99985896  1
  Cd  Cd26  1  0.76523845  0.00000000  0.96764403  1
  Cd  Cd27  1  0.71846152  0.00000000  0.61665467  1
  Cd  Cd28  1  0.56585634  0.00000000  0.27012580  1
  Cd  Cd29  1  0.97262691  0.50000000  0.56172450  1
  As  As30  1  0.49328540  0.50000000  0.18983971  1
  As  As31  1  0.48206938  0.50000000  0.67597862  1
  As  As32  1  0.37334584  0.50000000  0.89412726  1
  As  As33  1  0.19614578  0.50000000  0.29862351  1
  As  As34  1  0.17381239  0.50000000  0.77847608  1
  As  As35  1  0.08598618  0.50000000  0.48098193  1
  As  As36  1  0.06841798  0.50000000  0.97861525  1
  As  As37  1  0.38153252  0.00000000  0.37886436  1
  As  As38  1  0.28977931  0.00000000  0.60973789  1
  As  As39  1  0.26413255  0.00000000  0.07216240  1
  As  As40  1  0.99328540  0.00000000  0.18983971  1
  As  As41  1  0.98206938  0.00000000  0.67597862  1
  As  As42  1  0.87334584  0.00000000  0.89412726  1
  As  As43  1  0.69614578  0.00000000  0.29862351  1
  As  As44  1  0.67381239  0.00000000  0.77847608  1
  As  As45  1  0.58598618  0.00000000  0.48098193  1
  As  As46  1  0.56841798  0.00000000  0.97861525  1
  As  As47  1  0.88153252  0.50000000  0.37886436  1
  As  As48  1  0.78977931  0.50000000  0.60973789  1
  As  As49  1  0.76413255  0.50000000  0.07216240  1
