# generated using pymatgen
data_Pd5Pb3
_symmetry_space_group_name_H-M   'P 1'
_cell_length_a   12.47738000
_cell_length_b   7.82918400
_cell_length_c   7.45986698
_cell_angle_alpha   90.00000000
_cell_angle_beta   121.17638226
_cell_angle_gamma   90.00000000
_symmetry_Int_Tables_number   1
_chemical_formula_structural   Pd5Pb3
_chemical_formula_sum   'Pd20 Pb12'
_cell_volume   623.49137912
_cell_formula_units_Z   4
loop_
 _symmetry_equiv_pos_site_id
 _symmetry_equiv_pos_as_xyz
  1  'x, y, z'
loop_
 _atom_site_type_symbol
 _atom_site_label
 _atom_site_symmetry_multiplicity
 _atom_site_fract_x
 _atom_site_fract_y
 _atom_site_fract_z
 _atom_site_occupancy
  Pd  Pd0  1  0.16946850  0.79320650  0.34372500  1
  Pd  Pd1  1  0.83053150  0.79320650  0.65627500  1
  Pd  Pd2  1  0.91882650  0.12608350  0.58804000  1
  Pd  Pd3  1  0.08117350  0.12608350  0.41196000  1
  Pd  Pd4  1  0.08278800  0.63318700  0.91488600  1
  Pd  Pd5  1  0.91721200  0.63318700  0.08511400  1
  Pd  Pd6  1  0.25411450  0.62948450  0.75861700  1
  Pd  Pd7  1  0.74588550  0.62948450  0.24138300  1
  Pd  Pd8  1  0.66814050  0.46364150  0.83245300  1
  Pd  Pd9  1  0.33185950  0.46364150  0.16754700  1
  Pd  Pd10  1  0.66946850  0.29320650  0.34372500  1
  Pd  Pd11  1  0.33053150  0.29320650  0.65627500  1
  Pd  Pd12  1  0.41882650  0.62608350  0.58804000  1
  Pd  Pd13  1  0.58117350  0.62608350  0.41196000  1
  Pd  Pd14  1  0.58278800  0.13318700  0.91488600  1
  Pd  Pd15  1  0.41721200  0.13318700  0.08511400  1
  Pd  Pd16  1  0.75411450  0.12948450  0.75861700  1
  Pd  Pd17  1  0.24588550  0.12948450  0.24138300  1
  Pd  Pd18  1  0.16814050  0.96364150  0.83245300  1
  Pd  Pd19  1  0.83185950  0.96364150  0.16754700  1
  Pb  Pb20  1  0.85365800  0.44289100  0.71021500  1
  Pb  Pb21  1  0.14634200  0.44289100  0.28978500  1
  Pb  Pb22  1  0.00000000  0.98878200  0.00000000  1
  Pb  Pb23  1  0.00000000  0.75902200  0.50000000  1
  Pb  Pb24  1  0.15066650  0.31460450  0.79295600  1
  Pb  Pb25  1  0.84933350  0.31460450  0.20704400  1
  Pb  Pb26  1  0.35365800  0.94289100  0.71021500  1
  Pb  Pb27  1  0.64634200  0.94289100  0.28978500  1
  Pb  Pb28  1  0.50000000  0.48878200  0.00000000  1
  Pb  Pb29  1  0.50000000  0.25902200  0.50000000  1
  Pb  Pb30  1  0.65066650  0.81460450  0.79295600  1
  Pb  Pb31  1  0.34933350  0.81460450  0.20704400  1
