# generated using pymatgen
data_Zr2V3Ge4
_symmetry_space_group_name_H-M   'P 1'
_cell_length_a   6.64778768
_cell_length_b   6.76383681
_cell_length_c   12.75797927
_cell_angle_alpha   90.00000000
_cell_angle_beta   90.00000000
_cell_angle_gamma   90.00000000
_symmetry_Int_Tables_number   1
_chemical_formula_structural   Zr2V3Ge4
_chemical_formula_sum   'Zr8 V12 Ge16'
_cell_volume   573.65680973
_cell_formula_units_Z   4
loop_
 _symmetry_equiv_pos_site_id
 _symmetry_equiv_pos_as_xyz
  1  'x, y, z'
loop_
 _atom_site_type_symbol
 _atom_site_label
 _atom_site_symmetry_multiplicity
 _atom_site_fract_x
 _atom_site_fract_y
 _atom_site_fract_z
 _atom_site_occupancy
  Zr  Zr0  1  0.49020106  0.67297096  0.90634664  1
  Zr  Zr1  1  0.99020106  0.82702904  0.59365336  1
  Zr  Zr2  1  0.50979894  0.32702904  0.40634664  1
  Zr  Zr3  1  0.00979894  0.17297096  0.09365336  1
  Zr  Zr4  1  0.50979894  0.32702904  0.09365336  1
  Zr  Zr5  1  0.00979894  0.17297096  0.40634664  1
  Zr  Zr6  1  0.49020106  0.67297096  0.59365336  1
  Zr  Zr7  1  0.99020106  0.82702904  0.90634664  1
  V  V8  1  0.33563838  0.00960155  0.75000000  1
  V  V9  1  0.83563838  0.49039845  0.75000000  1
  V  V10  1  0.66436162  0.99039845  0.25000000  1
  V  V11  1  0.16436162  0.50960155  0.25000000  1
  V  V12  1  0.65998150  0.16407257  0.87489575  1
  V  V13  1  0.15998150  0.33592743  0.62510425  1
  V  V14  1  0.34001850  0.83592743  0.37489575  1
  V  V15  1  0.84001850  0.66407257  0.12510425  1
  V  V16  1  0.34001850  0.83592743  0.12510425  1
  V  V17  1  0.84001850  0.66407257  0.37489575  1
  V  V18  1  0.65998150  0.16407257  0.62510425  1
  V  V19  1  0.15998150  0.33592743  0.87489575  1
  Ge  Ge20  1  0.69205928  0.85949360  0.75000000  1
  Ge  Ge21  1  0.19205928  0.64050640  0.75000000  1
  Ge  Ge22  1  0.30794072  0.14050640  0.25000000  1
  Ge  Ge23  1  0.80794072  0.35949360  0.25000000  1
  Ge  Ge24  1  0.67768470  0.95484980  0.04221227  1
  Ge  Ge25  1  0.17768470  0.54515020  0.45778773  1
  Ge  Ge26  1  0.32231530  0.04515020  0.54221227  1
  Ge  Ge27  1  0.82231530  0.45484980  0.95778773  1
  Ge  Ge28  1  0.32231530  0.04515020  0.95778773  1
  Ge  Ge29  1  0.82231530  0.45484980  0.54221227  1
  Ge  Ge30  1  0.67768470  0.95484980  0.45778773  1
  Ge  Ge31  1  0.17768470  0.54515020  0.04221227  1
  Ge  Ge32  1  0.46498241  0.37354302  0.75000000  1
  Ge  Ge33  1  0.96498241  0.12645698  0.75000000  1
  Ge  Ge34  1  0.53501759  0.62645698  0.25000000  1
  Ge  Ge35  1  0.03501759  0.87354302  0.25000000  1
