# generated using pymatgen
data_CaCd2
_symmetry_space_group_name_H-M   'P 1'
_cell_length_a   4.93786668
_cell_length_b   7.57767537
_cell_length_c   8.39573950
_cell_angle_alpha   90.00000000
_cell_angle_beta   90.00000000
_cell_angle_gamma   90.00000000
_symmetry_Int_Tables_number   1
_chemical_formula_structural   CaCd2
_chemical_formula_sum   'Ca4 Cd8'
_cell_volume   314.14800850
_cell_formula_units_Z   4
loop_
 _symmetry_equiv_pos_site_id
 _symmetry_equiv_pos_as_xyz
  1  'x, y, z'
loop_
 _atom_site_type_symbol
 _atom_site_label
 _atom_site_symmetry_multiplicity
 _atom_site_fract_x
 _atom_site_fract_y
 _atom_site_fract_z
 _atom_site_occupancy
  Ca  Ca0  1  0.00000000  0.25000000  0.54144690  1
  Ca  Ca1  1  0.00000000  0.75000000  0.45855310  1
  Ca  Ca2  1  0.50000000  0.75000000  0.04144690  1
  Ca  Ca3  1  0.50000000  0.25000000  0.95855310  1
  Cd  Cd4  1  0.00000000  0.45212375  0.16455174  1
  Cd  Cd5  1  0.00000000  0.54787625  0.83544826  1
  Cd  Cd6  1  0.50000000  0.45212375  0.33544826  1
  Cd  Cd7  1  0.50000000  0.54787625  0.66455174  1
  Cd  Cd8  1  0.50000000  0.95212375  0.66455174  1
  Cd  Cd9  1  0.50000000  0.04787625  0.33544826  1
  Cd  Cd10  1  0.00000000  0.95212375  0.83544826  1
  Cd  Cd11  1  0.00000000  0.04787625  0.16455174  1
