# generated using pymatgen
data_Nb3Si
_symmetry_space_group_name_H-M   'P 1'
_cell_length_a   10.35291600
_cell_length_b   10.35291600
_cell_length_c   5.16617600
_cell_angle_alpha   90.00000000
_cell_angle_beta   90.00000000
_cell_angle_gamma   90.00000000
_symmetry_Int_Tables_number   1
_chemical_formula_structural   Nb3Si
_chemical_formula_sum   'Nb24 Si8'
_cell_volume   553.72556907
_cell_formula_units_Z   8
loop_
 _symmetry_equiv_pos_site_id
 _symmetry_equiv_pos_as_xyz
  1  'x, y, z'
loop_
 _atom_site_type_symbol
 _atom_site_label
 _atom_site_symmetry_multiplicity
 _atom_site_fract_x
 _atom_site_fract_y
 _atom_site_fract_z
 _atom_site_occupancy
  Nb  Nb0  1  0.90067000  0.91831900  0.26050550  1
  Nb  Nb1  1  0.09933000  0.08168100  0.26050550  1
  Nb  Nb2  1  0.41831900  0.59933000  0.23949450  1
  Nb  Nb3  1  0.58168100  0.40067000  0.23949450  1
  Nb  Nb4  1  0.48164450  0.14252350  0.01493100  1
  Nb  Nb5  1  0.51835550  0.85747650  0.01493100  1
  Nb  Nb6  1  0.64252350  0.01835550  0.48506900  1
  Nb  Nb7  1  0.35747650  0.98164450  0.48506900  1
  Nb  Nb8  1  0.78303300  0.81198800  0.74774950  1
  Nb  Nb9  1  0.21696700  0.18801200  0.74774950  1
  Nb  Nb10  1  0.31198800  0.71696700  0.75225050  1
  Nb  Nb11  1  0.68801200  0.28303300  0.75225050  1
  Nb  Nb12  1  0.40067000  0.41831900  0.76050550  1
  Nb  Nb13  1  0.59933000  0.58168100  0.76050550  1
  Nb  Nb14  1  0.91831900  0.09933000  0.73949450  1
  Nb  Nb15  1  0.08168100  0.90067000  0.73949450  1
  Nb  Nb16  1  0.98164450  0.64252350  0.51493100  1
  Nb  Nb17  1  0.01835550  0.35747650  0.51493100  1
  Nb  Nb18  1  0.14252350  0.51835550  0.98506900  1
  Nb  Nb19  1  0.85747650  0.48164450  0.98506900  1
  Nb  Nb20  1  0.28303300  0.31198800  0.24774950  1
  Nb  Nb21  1  0.71696700  0.68801200  0.24774950  1
  Nb  Nb22  1  0.81198800  0.21696700  0.25225050  1
  Nb  Nb23  1  0.18801200  0.78303300  0.25225050  1
  Si  Si24  1  0.46850100  0.20774200  0.51965650  1
  Si  Si25  1  0.53149900  0.79225800  0.51965650  1
  Si  Si26  1  0.70774200  0.03149900  0.98034350  1
  Si  Si27  1  0.29225800  0.96850100  0.98034350  1
  Si  Si28  1  0.96850100  0.70774200  0.01965650  1
  Si  Si29  1  0.03149900  0.29225800  0.01965650  1
  Si  Si30  1  0.20774200  0.53149900  0.48034350  1
  Si  Si31  1  0.79225800  0.46850100  0.48034350  1
