# generated using pymatgen
data_HfTiN2
_symmetry_space_group_name_H-M   'P 1'
_cell_length_a   3.11836361
_cell_length_b   3.11836361
_cell_length_c   15.09245677
_cell_angle_alpha   90.00000000
_cell_angle_beta   90.00000000
_cell_angle_gamma   120.00000000
_symmetry_Int_Tables_number   1
_chemical_formula_structural   HfTiN2
_chemical_formula_sum   'Hf3 Ti3 N6'
_cell_volume   127.09956973
_cell_formula_units_Z   3
loop_
 _symmetry_equiv_pos_site_id
 _symmetry_equiv_pos_as_xyz
  1  'x, y, z'
loop_
 _atom_site_type_symbol
 _atom_site_label
 _atom_site_symmetry_multiplicity
 _atom_site_fract_x
 _atom_site_fract_y
 _atom_site_fract_z
 _atom_site_occupancy
  Hf  Hf0  1  0.00000000  0.00000000  0.00000000  1
  Hf  Hf1  1  0.66666667  0.33333333  0.33333333  1
  Hf  Hf2  1  0.33333333  0.66666667  0.66666667  1
  Ti  Ti3  1  0.33333333  0.66666667  0.16666667  1
  Ti  Ti4  1  1.00000000  1.00000000  0.50000000  1
  Ti  Ti5  1  0.66666667  0.33333333  0.83333333  1
  N  N6  1  0.00000000  0.00000000  0.24810629  1
  N  N7  1  0.66666667  0.33333333  0.08522704  1
  N  N8  1  0.66666667  0.33333333  0.58143962  1
  N  N9  1  0.33333333  0.66666667  0.41856038  1
  N  N10  1  0.33333333  0.66666667  0.91477296  1
  N  N11  1  0.00000000  0.00000000  0.75189371  1
