# generated using pymatgen
data_Zr(SiPd)3
_symmetry_space_group_name_H-M   'P 1'
_cell_length_a   3.85110400
_cell_length_b   15.73327800
_cell_length_c   7.13201100
_cell_angle_alpha   90.00000000
_cell_angle_beta   90.00000000
_cell_angle_gamma   90.00000000
_symmetry_Int_Tables_number   1
_chemical_formula_structural   Zr(SiPd)3
_chemical_formula_sum   'Zr4 Si12 Pd12'
_cell_volume   432.13204003
_cell_formula_units_Z   4
loop_
 _symmetry_equiv_pos_site_id
 _symmetry_equiv_pos_as_xyz
  1  'x, y, z'
loop_
 _atom_site_type_symbol
 _atom_site_label
 _atom_site_symmetry_multiplicity
 _atom_site_fract_x
 _atom_site_fract_y
 _atom_site_fract_z
 _atom_site_occupancy
  Zr  Zr0  1  0.50000000  0.51119100  0.25000000  1
  Zr  Zr1  1  0.00000000  0.98880900  0.75000000  1
  Zr  Zr2  1  0.00000000  0.01119100  0.25000000  1
  Zr  Zr3  1  0.50000000  0.48880900  0.75000000  1
  Si  Si4  1  0.50000000  0.92635900  0.03228700  1
  Si  Si5  1  0.00000000  0.57364100  0.96771300  1
  Si  Si6  1  0.00000000  0.57364100  0.53228700  1
  Si  Si7  1  0.50000000  0.92635900  0.46771300  1
  Si  Si8  1  0.50000000  0.76176800  0.25000000  1
  Si  Si9  1  0.00000000  0.73823200  0.75000000  1
  Si  Si10  1  0.00000000  0.42635900  0.03228700  1
  Si  Si11  1  0.50000000  0.07364100  0.96771300  1
  Si  Si12  1  0.50000000  0.07364100  0.53228700  1
  Si  Si13  1  0.00000000  0.42635900  0.46771300  1
  Si  Si14  1  0.00000000  0.26176800  0.25000000  1
  Si  Si15  1  0.50000000  0.23823200  0.75000000  1
  Pd  Pd16  1  0.00000000  0.66025000  0.25000000  1
  Pd  Pd17  1  0.50000000  0.83975000  0.75000000  1
  Pd  Pd18  1  0.50000000  0.67533100  0.55307500  1
  Pd  Pd19  1  0.00000000  0.82466900  0.44692500  1
  Pd  Pd20  1  0.00000000  0.82466900  0.05307500  1
  Pd  Pd21  1  0.50000000  0.67533100  0.94692500  1
  Pd  Pd22  1  0.50000000  0.16025000  0.25000000  1
  Pd  Pd23  1  0.00000000  0.33975000  0.75000000  1
  Pd  Pd24  1  0.00000000  0.17533100  0.55307500  1
  Pd  Pd25  1  0.50000000  0.32466900  0.44692500  1
  Pd  Pd26  1  0.50000000  0.32466900  0.05307500  1
  Pd  Pd27  1  0.00000000  0.17533100  0.94692500  1
