# generated using pymatgen
data_H3S
_symmetry_space_group_name_H-M   'P 1'
_cell_length_a   12.61549600
_cell_length_b   12.94533200
_cell_length_c   5.28225200
_cell_angle_alpha   90.00000000
_cell_angle_beta   90.00000000
_cell_angle_gamma   90.00000000
_symmetry_Int_Tables_number   1
_chemical_formula_structural   H3S
_chemical_formula_sum   'H48 S16'
_cell_volume   862.65399800
_cell_formula_units_Z   16
loop_
 _symmetry_equiv_pos_site_id
 _symmetry_equiv_pos_as_xyz
  1  'x, y, z'
loop_
 _atom_site_type_symbol
 _atom_site_label
 _atom_site_symmetry_multiplicity
 _atom_site_fract_x
 _atom_site_fract_y
 _atom_site_fract_z
 _atom_site_occupancy
  H  H0  1  0.16780650  0.16653850  0.24796100  1
  H  H1  1  0.83219350  0.83346150  0.24796100  1
  H  H2  1  0.83219350  0.16653850  0.25203900  1
  H  H3  1  0.16780650  0.83346150  0.25203900  1
  H  H4  1  0.83219350  0.83346150  0.75203900  1
  H  H5  1  0.16780650  0.16653850  0.75203900  1
  H  H6  1  0.16780650  0.83346150  0.74796100  1
  H  H7  1  0.83219350  0.16653850  0.74796100  1
  H  H8  1  0.31374450  0.15738650  0.50000000  1
  H  H9  1  0.68625550  0.84261350  0.50000000  1
  H  H10  1  0.68625550  0.15738650  0.00000000  1
  H  H11  1  0.31374450  0.84261350  0.00000000  1
  H  H12  1  0.65259700  0.80817000  0.00000000  1
  H  H13  1  0.34740300  0.19183000  0.00000000  1
  H  H14  1  0.34740300  0.80817000  0.50000000  1
  H  H15  1  0.65259700  0.19183000  0.50000000  1
  H  H16  1  0.00000000  0.00000000  0.32087300  1
  H  H17  1  0.00000000  0.00000000  0.17912700  1
  H  H18  1  0.00000000  0.00000000  0.67912700  1
  H  H19  1  0.00000000  0.00000000  0.82087300  1
  H  H20  1  0.47031000  0.00000000  0.25000000  1
  H  H21  1  0.52969000  0.00000000  0.25000000  1
  H  H22  1  0.52969000  0.00000000  0.75000000  1
  H  H23  1  0.47031000  0.00000000  0.75000000  1
  H  H24  1  0.66780650  0.66653850  0.24796100  1
  H  H25  1  0.33219350  0.33346150  0.24796100  1
  H  H26  1  0.33219350  0.66653850  0.25203900  1
  H  H27  1  0.66780650  0.33346150  0.25203900  1
  H  H28  1  0.33219350  0.33346150  0.75203900  1
  H  H29  1  0.66780650  0.66653850  0.75203900  1
  H  H30  1  0.66780650  0.33346150  0.74796100  1
  H  H31  1  0.33219350  0.66653850  0.74796100  1
  H  H32  1  0.81374450  0.65738650  0.50000000  1
  H  H33  1  0.18625550  0.34261350  0.50000000  1
  H  H34  1  0.18625550  0.65738650  0.00000000  1
  H  H35  1  0.81374450  0.34261350  0.00000000  1
  H  H36  1  0.15259700  0.30817000  0.00000000  1
  H  H37  1  0.84740300  0.69183000  0.00000000  1
  H  H38  1  0.84740300  0.30817000  0.50000000  1
  H  H39  1  0.15259700  0.69183000  0.50000000  1
  H  H40  1  0.50000000  0.50000000  0.32087300  1
  H  H41  1  0.50000000  0.50000000  0.17912700  1
  H  H42  1  0.50000000  0.50000000  0.67912700  1
  H  H43  1  0.50000000  0.50000000  0.82087300  1
  H  H44  1  0.97031000  0.50000000  0.25000000  1
  H  H45  1  0.02969000  0.50000000  0.25000000  1
  H  H46  1  0.02969000  0.50000000  0.75000000  1
  H  H47  1  0.97031000  0.50000000  0.75000000  1
  S  S48  1  0.22016900  0.10592000  0.50000000  1
  S  S49  1  0.77983100  0.89408000  0.50000000  1
  S  S50  1  0.77983100  0.10592000  0.00000000  1
  S  S51  1  0.22016900  0.89408000  0.00000000  1
  S  S52  1  0.60426250  0.71474350  0.00000000  1
  S  S53  1  0.39573750  0.28525650  0.00000000  1
  S  S54  1  0.39573750  0.71474350  0.50000000  1
  S  S55  1  0.60426250  0.28525650  0.50000000  1
  S  S56  1  0.72016900  0.60592000  0.50000000  1
  S  S57  1  0.27983100  0.39408000  0.50000000  1
  S  S58  1  0.27983100  0.60592000  0.00000000  1
  S  S59  1  0.72016900  0.39408000  0.00000000  1
  S  S60  1  0.10426250  0.21474350  0.00000000  1
  S  S61  1  0.89573750  0.78525650  0.00000000  1
  S  S62  1  0.89573750  0.21474350  0.50000000  1
  S  S63  1  0.10426250  0.78525650  0.50000000  1
