# generated using pymatgen
data_Ru2SeS3
_symmetry_space_group_name_H-M   'P 1'
_cell_length_a   5.74666300
_cell_length_b   5.74848100
_cell_length_c   5.74974968
_cell_angle_alpha   90.00000000
_cell_angle_beta   90.79442865
_cell_angle_gamma   90.00000000
_symmetry_Int_Tables_number   1
_chemical_formula_structural   Ru2SeS3
_chemical_formula_sum   'Ru4 Se2 S6'
_cell_volume   189.92232588
_cell_formula_units_Z   2
loop_
 _symmetry_equiv_pos_site_id
 _symmetry_equiv_pos_as_xyz
  1  'x, y, z'
loop_
 _atom_site_type_symbol
 _atom_site_label
 _atom_site_symmetry_multiplicity
 _atom_site_fract_x
 _atom_site_fract_y
 _atom_site_fract_z
 _atom_site_occupancy
  Ru  Ru0  1  0.99235800  0.49686500  0.75185200  1
  Ru  Ru1  1  0.00764200  0.99686500  0.24814800  1
  Ru  Ru2  1  0.50009800  0.00493200  0.75965600  1
  Ru  Ru3  1  0.49990200  0.50493200  0.24034400  1
  Se  Se4  1  0.38272200  0.61634200  0.63311600  1
  Se  Se5  1  0.61727800  0.11634200  0.36688400  1
  S  S6  1  0.61727000  0.38278700  0.86935600  1
  S  S7  1  0.38273000  0.88278700  0.13064400  1
  S  S8  1  0.11331100  0.11339300  0.63896400  1
  S  S9  1  0.88668900  0.61339300  0.36103600  1
  S  S10  1  0.88611700  0.88568200  0.86454900  1
  S  S11  1  0.11388300  0.38568200  0.13545100  1
