# generated using pymatgen
data_P3Pd
_symmetry_space_group_name_H-M   'P 1'
_cell_length_a   8.22251200
_cell_length_b   8.22251200
_cell_length_c   8.22251200
_cell_angle_alpha   90.00000000
_cell_angle_beta   90.00000000
_cell_angle_gamma   90.00000000
_symmetry_Int_Tables_number   1
_chemical_formula_structural   P3Pd
_chemical_formula_sum   'P24 Pd8'
_cell_volume   555.92159909
_cell_formula_units_Z   8
loop_
 _symmetry_equiv_pos_site_id
 _symmetry_equiv_pos_as_xyz
  1  'x, y, z'
loop_
 _atom_site_type_symbol
 _atom_site_label
 _atom_site_symmetry_multiplicity
 _atom_site_fract_x
 _atom_site_fract_y
 _atom_site_fract_z
 _atom_site_occupancy
  P  P0  1  0.13567500  0.36510500  0.50000000  1
  P  P1  1  0.36432500  0.13489500  0.00000000  1
  P  P2  1  0.63567500  0.13489500  0.00000000  1
  P  P3  1  0.86432500  0.36510500  0.50000000  1
  P  P4  1  0.36510500  0.50000000  0.13567500  1
  P  P5  1  0.13489500  0.00000000  0.36432500  1
  P  P6  1  0.13489500  0.00000000  0.63567500  1
  P  P7  1  0.36510500  0.50000000  0.86432500  1
  P  P8  1  0.50000000  0.13567500  0.36510500  1
  P  P9  1  0.00000000  0.36432500  0.13489500  1
  P  P10  1  0.00000000  0.63567500  0.13489500  1
  P  P11  1  0.50000000  0.86432500  0.36510500  1
  P  P12  1  0.63567500  0.86510500  0.00000000  1
  P  P13  1  0.86432500  0.63489500  0.50000000  1
  P  P14  1  0.13567500  0.63489500  0.50000000  1
  P  P15  1  0.36432500  0.86510500  0.00000000  1
  P  P16  1  0.86510500  0.00000000  0.63567500  1
  P  P17  1  0.63489500  0.50000000  0.86432500  1
  P  P18  1  0.63489500  0.50000000  0.13567500  1
  P  P19  1  0.86510500  0.00000000  0.36432500  1
  P  P20  1  0.00000000  0.63567500  0.86510500  1
  P  P21  1  0.50000000  0.86432500  0.63489500  1
  P  P22  1  0.50000000  0.13567500  0.63489500  1
  P  P23  1  0.00000000  0.36432500  0.86510500  1
  Pd  Pd24  1  0.25000000  0.25000000  0.25000000  1
  Pd  Pd25  1  0.75000000  0.25000000  0.25000000  1
  Pd  Pd26  1  0.25000000  0.75000000  0.25000000  1
  Pd  Pd27  1  0.25000000  0.25000000  0.75000000  1
  Pd  Pd28  1  0.75000000  0.75000000  0.75000000  1
  Pd  Pd29  1  0.25000000  0.75000000  0.75000000  1
  Pd  Pd30  1  0.75000000  0.25000000  0.75000000  1
  Pd  Pd31  1  0.75000000  0.75000000  0.25000000  1
