# generated using pymatgen
data_Cs3SnTe3
_symmetry_space_group_name_H-M   'P 1'
_cell_length_a   17.76550498
_cell_length_b   14.63154932
_cell_length_c   10.45525994
_cell_angle_alpha   90.00000000
_cell_angle_beta   96.72730449
_cell_angle_gamma   90.00000000
_symmetry_Int_Tables_number   1
_chemical_formula_structural   Cs3SnTe3
_chemical_formula_sum   'Cs24 Sn8 Te24'
_cell_volume   2698.99587706
_cell_formula_units_Z   8
loop_
 _symmetry_equiv_pos_site_id
 _symmetry_equiv_pos_as_xyz
  1  'x, y, z'
loop_
 _atom_site_type_symbol
 _atom_site_label
 _atom_site_symmetry_multiplicity
 _atom_site_fract_x
 _atom_site_fract_y
 _atom_site_fract_z
 _atom_site_occupancy
  Cs  Cs0  1  0.50000000  0.89490961  0.25000000  1
  Cs  Cs1  1  0.50000000  0.10509039  0.75000000  1
  Cs  Cs2  1  0.50000000  0.58679107  0.25000000  1
  Cs  Cs3  1  0.50000000  0.41320893  0.75000000  1
  Cs  Cs4  1  0.40672184  0.80781919  0.86589265  1
  Cs  Cs5  1  0.59327816  0.80781919  0.63410735  1
  Cs  Cs6  1  0.59327816  0.19218081  0.13410735  1
  Cs  Cs7  1  0.40672184  0.19218081  0.36589265  1
  Cs  Cs8  1  0.21767929  0.02575134  0.68734593  1
  Cs  Cs9  1  0.78232071  0.02575134  0.81265407  1
  Cs  Cs10  1  0.78232071  0.97424866  0.31265407  1
  Cs  Cs11  1  0.21767929  0.97424866  0.18734593  1
  Cs  Cs12  1  0.00000000  0.39490961  0.25000000  1
  Cs  Cs13  1  0.00000000  0.60509039  0.75000000  1
  Cs  Cs14  1  0.00000000  0.08679107  0.25000000  1
  Cs  Cs15  1  0.00000000  0.91320893  0.75000000  1
  Cs  Cs16  1  0.90672184  0.30781919  0.86589265  1
  Cs  Cs17  1  0.09327816  0.30781919  0.63410735  1
  Cs  Cs18  1  0.09327816  0.69218081  0.13410735  1
  Cs  Cs19  1  0.90672184  0.69218081  0.36589265  1
  Cs  Cs20  1  0.71767929  0.52575134  0.68734593  1
  Cs  Cs21  1  0.28232071  0.52575134  0.81265407  1
  Cs  Cs22  1  0.28232071  0.47424866  0.31265407  1
  Cs  Cs23  1  0.71767929  0.47424866  0.18734593  1
  Sn  Sn24  1  0.32377941  0.75823659  0.45464446  1
  Sn  Sn25  1  0.67622059  0.75823659  0.04535554  1
  Sn  Sn26  1  0.67622059  0.24176341  0.54535554  1
  Sn  Sn27  1  0.32377941  0.24176341  0.95464446  1
  Sn  Sn28  1  0.82377941  0.25823659  0.45464446  1
  Sn  Sn29  1  0.17622059  0.25823659  0.04535554  1
  Sn  Sn30  1  0.17622059  0.74176340  0.54535554  1
  Sn  Sn31  1  0.82377941  0.74176340  0.95464446  1
  Te  Te32  1  0.68661350  0.26605828  0.81030163  1
  Te  Te33  1  0.31338650  0.26605828  0.68969837  1
  Te  Te34  1  0.31338650  0.73394172  0.18969837  1
  Te  Te35  1  0.68661350  0.73394172  0.31030163  1
  Te  Te36  1  0.58002568  0.37054743  0.42452707  1
  Te  Te37  1  0.41997432  0.37054743  0.07547293  1
  Te  Te38  1  0.41997432  0.62945257  0.57547293  1
  Te  Te39  1  0.58002568  0.62945257  0.92452707  1
  Te  Te40  1  0.38150786  0.93039224  0.52248777  1
  Te  Te41  1  0.61849214  0.93039224  0.97751223  1
  Te  Te42  1  0.61849214  0.06960776  0.47751223  1
  Te  Te43  1  0.38150786  0.06960776  0.02248777  1
  Te  Te44  1  0.18661350  0.76605828  0.81030163  1
  Te  Te45  1  0.81338650  0.76605828  0.68969837  1
  Te  Te46  1  0.81338650  0.23394172  0.18969837  1
  Te  Te47  1  0.18661350  0.23394172  0.31030163  1
  Te  Te48  1  0.08002568  0.87054743  0.42452707  1
  Te  Te49  1  0.91997433  0.87054743  0.07547293  1
  Te  Te50  1  0.91997433  0.12945257  0.57547293  1
  Te  Te51  1  0.08002568  0.12945257  0.92452707  1
  Te  Te52  1  0.88150786  0.43039224  0.52248777  1
  Te  Te53  1  0.11849214  0.43039224  0.97751223  1
  Te  Te54  1  0.11849214  0.56960776  0.47751223  1
  Te  Te55  1  0.88150786  0.56960776  0.02248777  1
