# generated using pymatgen
data_NaN3
_symmetry_space_group_name_H-M   'P 1'
_cell_length_a   3.79143111
_cell_length_b   3.79143111
_cell_length_c   14.94122604
_cell_angle_alpha   90.00000000
_cell_angle_beta   90.00000000
_cell_angle_gamma   120.00000000
_symmetry_Int_Tables_number   1
_chemical_formula_structural   NaN3
_chemical_formula_sum   'Na3 N9'
_cell_volume   186.00439546
_cell_formula_units_Z   3
loop_
 _symmetry_equiv_pos_site_id
 _symmetry_equiv_pos_as_xyz
  1  'x, y, z'
loop_
 _atom_site_type_symbol
 _atom_site_label
 _atom_site_symmetry_multiplicity
 _atom_site_fract_x
 _atom_site_fract_y
 _atom_site_fract_z
 _atom_site_occupancy
  Na  Na0  1  0.00000000  0.00000000  0.00012800  1
  Na  Na1  1  0.66666667  0.33333333  0.33346133  1
  Na  Na2  1  0.33333333  0.66666667  0.66679467  1
  N  N3  1  0.33333333  0.66666667  0.09101667  1
  N  N4  1  0.33333333  0.66666667  0.17017767  1
  N  N5  1  0.33333333  0.66666667  0.24967767  1
  N  N6  1  0.00000000  0.00000000  0.42435000  1
  N  N7  1  0.00000000  0.00000000  0.50351100  1
  N  N8  1  0.00000000  0.00000000  0.58301100  1
  N  N9  1  0.66666667  0.33333333  0.75768333  1
  N  N10  1  0.66666667  0.33333333  0.83684433  1
  N  N11  1  0.66666667  0.33333333  0.91634433  1
