# generated using pymatgen
data_MoWSe4
_symmetry_space_group_name_H-M   'P 1'
_cell_length_a   3.32326396
_cell_length_b   3.32326396
_cell_length_c   37.84522600
_cell_angle_alpha   90.00000000
_cell_angle_beta   90.00000000
_cell_angle_gamma   120.00000000
_symmetry_Int_Tables_number   1
_chemical_formula_structural   MoWSe4
_chemical_formula_sum   'Mo2 W2 Se8'
_cell_volume   361.96902668
_cell_formula_units_Z   2
loop_
 _symmetry_equiv_pos_site_id
 _symmetry_equiv_pos_as_xyz
  1  'x, y, z'
loop_
 _atom_site_type_symbol
 _atom_site_label
 _atom_site_symmetry_multiplicity
 _atom_site_fract_x
 _atom_site_fract_y
 _atom_site_fract_z
 _atom_site_occupancy
  Mo  Mo0  1  0.33333333  0.66666667  0.09392900  1
  Mo  Mo1  1  0.66666667  0.33333333  0.90607100  1
  W  W2  1  0.33333333  0.66666667  0.71819200  1
  W  W3  1  0.66666667  0.33333333  0.28180800  1
  Se  Se4  1  0.33333333  0.66666667  0.95036000  1
  Se  Se5  1  0.33333333  0.66666667  0.32630400  1
  Se  Se6  1  0.66666667  0.33333333  0.67369600  1
  Se  Se7  1  0.66666667  0.33333333  0.04964000  1
  Se  Se8  1  0.66666667  0.33333333  0.76270300  1
  Se  Se9  1  0.66666667  0.33333333  0.13820900  1
  Se  Se10  1  0.33333333  0.66666667  0.86179100  1
  Se  Se11  1  0.33333333  0.66666667  0.23729700  1
