# generated using pymatgen
data_Ti(CrTe2)2
_symmetry_space_group_name_H-M   'P 1'
_cell_length_a   14.28676000
_cell_length_b   3.95914200
_cell_length_c   7.07828012
_cell_angle_alpha   90.00000000
_cell_angle_beta   118.96549118
_cell_angle_gamma   90.00000000
_symmetry_Int_Tables_number   1
_chemical_formula_structural   Ti(CrTe2)2
_chemical_formula_sum   'Ti2 Cr4 Te8'
_cell_volume   350.28917870
_cell_formula_units_Z   2
loop_
 _symmetry_equiv_pos_site_id
 _symmetry_equiv_pos_as_xyz
  1  'x, y, z'
loop_
 _atom_site_type_symbol
 _atom_site_label
 _atom_site_symmetry_multiplicity
 _atom_site_fract_x
 _atom_site_fract_y
 _atom_site_fract_z
 _atom_site_occupancy
  Ti  Ti0  1  0.00000000  0.00000000  0.00000000  1
  Ti  Ti1  1  0.50000000  0.50000000  0.00000000  1
  Cr  Cr2  1  0.24121000  0.50000000  0.72447400  1
  Cr  Cr3  1  0.25879000  0.00000000  0.27552600  1
  Cr  Cr4  1  0.74121000  0.00000000  0.72447400  1
  Cr  Cr5  1  0.75879000  0.50000000  0.27552600  1
  Te  Te6  1  0.37762700  0.50000000  0.55131000  1
  Te  Te7  1  0.12237300  0.00000000  0.44869000  1
  Te  Te8  1  0.13393400  0.50000000  0.96942000  1
  Te  Te9  1  0.36606600  0.00000000  0.03058000  1
  Te  Te10  1  0.87762700  0.00000000  0.55131000  1
  Te  Te11  1  0.62237300  0.50000000  0.44869000  1
  Te  Te12  1  0.63393400  0.00000000  0.96942000  1
  Te  Te13  1  0.86606600  0.50000000  0.03058000  1
