# generated using pymatgen
data_Mn4Fe2P3
_symmetry_space_group_name_H-M   'P 1'
_cell_length_a   6.11836589
_cell_length_b   3.24555600
_cell_length_c   6.13227286
_cell_angle_alpha   90.00000000
_cell_angle_beta   119.59918311
_cell_angle_gamma   90.00000000
_symmetry_Int_Tables_number   1
_chemical_formula_structural   Mn4Fe2P3
_chemical_formula_sum   'Mn4 Fe2 P3'
_cell_volume   105.88064884
_cell_formula_units_Z   1
loop_
 _symmetry_equiv_pos_site_id
 _symmetry_equiv_pos_as_xyz
  1  'x, y, z'
loop_
 _atom_site_type_symbol
 _atom_site_label
 _atom_site_symmetry_multiplicity
 _atom_site_fract_x
 _atom_site_fract_y
 _atom_site_fract_z
 _atom_site_occupancy
  Mn  Mn0  1  0.60177300  0.50000000  0.60188500  1
  Mn  Mn1  1  0.00319100  0.00000000  0.74111300  1
  Mn  Mn2  1  0.74098400  0.00000000  0.00325100  1
  Mn  Mn3  1  0.25640900  0.00000000  0.25646100  1
  Fe  Fe4  1  0.99668700  0.50000000  0.39849300  1
  Fe  Fe5  1  0.39871100  0.50000000  0.99676100  1
  P  P6  1  0.66570000  0.00000000  0.33569000  1
  P  P7  1  0.33620700  0.00000000  0.66584300  1
  P  P8  1  0.00033900  0.50000000  0.00060400  1
