# generated using pymatgen
data_HfCrP
_symmetry_space_group_name_H-M   'P 1'
_cell_length_a   3.62532566
_cell_length_b   6.33776737
_cell_length_c   7.52767871
_cell_angle_alpha   90.00000000
_cell_angle_beta   90.00000000
_cell_angle_gamma   90.00000000
_symmetry_Int_Tables_number   1
_chemical_formula_structural   HfCrP
_chemical_formula_sum   'Hf4 Cr4 P4'
_cell_volume   172.95948914
_cell_formula_units_Z   4
loop_
 _symmetry_equiv_pos_site_id
 _symmetry_equiv_pos_as_xyz
  1  'x, y, z'
loop_
 _atom_site_type_symbol
 _atom_site_label
 _atom_site_symmetry_multiplicity
 _atom_site_fract_x
 _atom_site_fract_y
 _atom_site_fract_z
 _atom_site_occupancy
  Hf  Hf0  1  0.75000000  0.03044415  0.67545024  1
  Hf  Hf1  1  0.25000000  0.96955585  0.32454976  1
  Hf  Hf2  1  0.25000000  0.46955585  0.17545024  1
  Hf  Hf3  1  0.75000000  0.53044415  0.82454976  1
  Cr  Cr4  1  0.75000000  0.14353491  0.06169117  1
  Cr  Cr5  1  0.25000000  0.85646509  0.93830883  1
  Cr  Cr6  1  0.25000000  0.35646509  0.56169117  1
  Cr  Cr7  1  0.75000000  0.64353491  0.43830883  1
  P  P8  1  0.75000000  0.27259675  0.37067214  1
  P  P9  1  0.25000000  0.72740325  0.62932786  1
  P  P10  1  0.25000000  0.22740325  0.87067214  1
  P  P11  1  0.75000000  0.77259675  0.12932786  1
