# generated using pymatgen
data_VZn2N3
_symmetry_space_group_name_H-M   'P 1'
_cell_length_a   5.56210059
_cell_length_b   9.49768632
_cell_length_c   5.23976807
_cell_angle_alpha   90.00000000
_cell_angle_beta   90.00000000
_cell_angle_gamma   90.00000000
_symmetry_Int_Tables_number   1
_chemical_formula_structural   VZn2N3
_chemical_formula_sum   'V4 Zn8 N12'
_cell_volume   276.80168216
_cell_formula_units_Z   4
loop_
 _symmetry_equiv_pos_site_id
 _symmetry_equiv_pos_as_xyz
  1  'x, y, z'
loop_
 _atom_site_type_symbol
 _atom_site_label
 _atom_site_symmetry_multiplicity
 _atom_site_fract_x
 _atom_site_fract_y
 _atom_site_fract_z
 _atom_site_occupancy
  V  V0  1  0.33770533  0.50000000  0.46170852  1
  V  V1  1  0.66229467  0.50000000  0.96170852  1
  V  V2  1  0.83770533  0.00000000  0.46170852  1
  V  V3  1  0.16229467  0.00000000  0.96170852  1
  Zn  Zn4  1  0.16370816  0.66666178  0.97308143  1
  Zn  Zn5  1  0.16370816  0.33333822  0.97308143  1
  Zn  Zn6  1  0.83629184  0.33333822  0.47308143  1
  Zn  Zn7  1  0.83629184  0.66666178  0.47308143  1
  Zn  Zn8  1  0.66370816  0.16666178  0.97308143  1
  Zn  Zn9  1  0.66370816  0.83333822  0.97308143  1
  Zn  Zn10  1  0.33629184  0.83333822  0.47308143  1
  Zn  Zn11  1  0.33629184  0.16666178  0.47308143  1
  N  N12  1  0.18063316  0.65263962  0.35897246  1
  N  N13  1  0.18063316  0.34736038  0.35897246  1
  N  N14  1  0.81936684  0.34736038  0.85897246  1
  N  N15  1  0.81936684  0.65263962  0.85897246  1
  N  N16  1  0.35351985  0.50000000  0.81856169  1
  N  N17  1  0.64648015  0.50000000  0.31856169  1
  N  N18  1  0.68063316  0.15263962  0.35897246  1
  N  N19  1  0.68063316  0.84736038  0.35897246  1
  N  N20  1  0.31936684  0.84736038  0.85897246  1
  N  N21  1  0.31936684  0.15263962  0.85897246  1
  N  N22  1  0.85351985  0.00000000  0.81856169  1
  N  N23  1  0.14648015  0.00000000  0.31856169  1
