# generated using pymatgen
data_NbVNi
_symmetry_space_group_name_H-M   'P 1'
_cell_length_a   4.89508118
_cell_length_b   8.46669272
_cell_length_c   8.06922253
_cell_angle_alpha   90.00000000
_cell_angle_beta   90.00000000
_cell_angle_gamma   90.00000000
_symmetry_Int_Tables_number   1
_chemical_formula_structural   NbVNi
_chemical_formula_sum   'Nb8 V8 Ni8'
_cell_volume   334.43012354
_cell_formula_units_Z   8
loop_
 _symmetry_equiv_pos_site_id
 _symmetry_equiv_pos_as_xyz
  1  'x, y, z'
loop_
 _atom_site_type_symbol
 _atom_site_label
 _atom_site_symmetry_multiplicity
 _atom_site_fract_x
 _atom_site_fract_y
 _atom_site_fract_z
 _atom_site_occupancy
  Nb  Nb0  1  0.50000000  0.82437729  0.81596553  1
  Nb  Nb1  1  0.50000000  0.15897228  0.69540313  1
  Nb  Nb2  1  0.50000000  0.15897228  0.30459687  1
  Nb  Nb3  1  0.50000000  0.82437729  0.18403447  1
  Nb  Nb4  1  0.00000000  0.32437729  0.81596553  1
  Nb  Nb5  1  0.00000000  0.65897228  0.69540313  1
  Nb  Nb6  1  0.00000000  0.65897228  0.30459687  1
  Nb  Nb7  1  0.00000000  0.32437729  0.18403447  1
  V  V8  1  0.50000000  0.34445457  0.00000000  1
  V  V9  1  0.25309615  0.91338104  0.50000000  1
  V  V10  1  0.74690385  0.91338104  0.50000000  1
  V  V11  1  0.50000000  0.67147907  0.50000000  1
  V  V12  1  0.00000000  0.84445457  0.00000000  1
  V  V13  1  0.75309615  0.41338104  0.50000000  1
  V  V14  1  0.24690385  0.41338104  0.50000000  1
  V  V15  1  0.00000000  0.17147907  0.50000000  1
  Ni  Ni16  1  0.50000000  0.49990434  0.75569156  1
  Ni  Ni17  1  0.50000000  0.49990434  0.24430844  1
  Ni  Ni18  1  0.74529859  0.09529623  0.00000000  1
  Ni  Ni19  1  0.25470141  0.09529623  0.00000000  1
  Ni  Ni20  1  0.00000000  0.99990434  0.75569156  1
  Ni  Ni21  1  0.00000000  0.99990434  0.24430844  1
  Ni  Ni22  1  0.24529859  0.59529623  0.00000000  1
  Ni  Ni23  1  0.75470141  0.59529623  0.00000000  1
