# generated using pymatgen
data_RuRh4
_symmetry_space_group_name_H-M   'P 1'
_cell_length_a   2.72254810
_cell_length_b   2.72254810
_cell_length_c   33.14255402
_cell_angle_alpha   90.00000000
_cell_angle_beta   90.00000000
_cell_angle_gamma   120.00000000
_symmetry_Int_Tables_number   1
_chemical_formula_structural   RuRh4
_chemical_formula_sum   'Ru3 Rh12'
_cell_volume   212.74909794
_cell_formula_units_Z   3
loop_
 _symmetry_equiv_pos_site_id
 _symmetry_equiv_pos_as_xyz
  1  'x, y, z'
loop_
 _atom_site_type_symbol
 _atom_site_label
 _atom_site_symmetry_multiplicity
 _atom_site_fract_x
 _atom_site_fract_y
 _atom_site_fract_z
 _atom_site_occupancy
  Ru  Ru0  1  0.00000000  0.00000000  0.00000000  1
  Ru  Ru1  1  0.66666667  0.33333333  0.33333333  1
  Ru  Ru2  1  0.33333333  0.66666667  0.66666667  1
  Rh  Rh3  1  0.33333333  0.66666667  0.06559967  1
  Rh  Rh4  1  0.66666667  0.33333333  0.13352433  1
  Rh  Rh5  1  0.00000000  0.00000000  0.19980900  1
  Rh  Rh6  1  0.33333333  0.66666667  0.26773367  1
  Rh  Rh7  1  0.00000000  0.00000000  0.39893300  1
  Rh  Rh8  1  0.33333333  0.66666667  0.46685767  1
  Rh  Rh9  1  0.66666667  0.33333333  0.53314233  1
  Rh  Rh10  1  0.00000000  0.00000000  0.60106700  1
  Rh  Rh11  1  0.66666667  0.33333333  0.73226633  1
  Rh  Rh12  1  0.00000000  0.00000000  0.80019100  1
  Rh  Rh13  1  0.33333333  0.66666667  0.86647567  1
  Rh  Rh14  1  0.66666667  0.33333333  0.93440033  1
