# generated using pymatgen
data_ZrMnGa
_symmetry_space_group_name_H-M   'P 1'
_cell_length_a   5.13958600
_cell_length_b   8.78891400
_cell_length_c   8.46099100
_cell_angle_alpha   90.00000000
_cell_angle_beta   90.00000000
_cell_angle_gamma   90.00000000
_symmetry_Int_Tables_number   1
_chemical_formula_structural   ZrMnGa
_chemical_formula_sum   'Zr8 Mn8 Ga8'
_cell_volume   382.19463413
_cell_formula_units_Z   8
loop_
 _symmetry_equiv_pos_site_id
 _symmetry_equiv_pos_as_xyz
  1  'x, y, z'
loop_
 _atom_site_type_symbol
 _atom_site_label
 _atom_site_symmetry_multiplicity
 _atom_site_fract_x
 _atom_site_fract_y
 _atom_site_fract_z
 _atom_site_occupancy
  Zr  Zr0  1  0.50000000  0.83458700  0.80782500  1
  Zr  Zr1  1  0.50000000  0.17041100  0.67621700  1
  Zr  Zr2  1  0.50000000  0.17041100  0.32378300  1
  Zr  Zr3  1  0.50000000  0.83458700  0.19217500  1
  Zr  Zr4  1  0.00000000  0.33458700  0.80782500  1
  Zr  Zr5  1  0.00000000  0.67041100  0.67621700  1
  Zr  Zr6  1  0.00000000  0.67041100  0.32378300  1
  Zr  Zr7  1  0.00000000  0.33458700  0.19217500  1
  Mn  Mn8  1  0.50000000  0.33526400  0.00000000  1
  Mn  Mn9  1  0.28008900  0.90501900  0.50000000  1
  Mn  Mn10  1  0.71991100  0.90501900  0.50000000  1
  Mn  Mn11  1  0.50000000  0.67531200  0.50000000  1
  Mn  Mn12  1  0.00000000  0.83526400  0.00000000  1
  Mn  Mn13  1  0.78008900  0.40501900  0.50000000  1
  Mn  Mn14  1  0.21991100  0.40501900  0.50000000  1
  Mn  Mn15  1  0.00000000  0.17531200  0.50000000  1
  Ga  Ga16  1  0.50000000  0.49455100  0.73266600  1
  Ga  Ga17  1  0.50000000  0.49455100  0.26733400  1
  Ga  Ga18  1  0.74357350  0.08941550  0.00000000  1
  Ga  Ga19  1  0.25642650  0.08941550  0.00000000  1
  Ga  Ga20  1  0.00000000  0.99455100  0.73266600  1
  Ga  Ga21  1  0.00000000  0.99455100  0.26733400  1
  Ga  Ga22  1  0.24357350  0.58941550  0.00000000  1
  Ga  Ga23  1  0.75642650  0.58941550  0.00000000  1
