# generated using pymatgen
data_PdRhPb4
_symmetry_space_group_name_H-M   'P 1'
_cell_length_a   6.83516450
_cell_length_b   6.83516450
_cell_length_c   5.88626684
_cell_angle_alpha   90.00000000
_cell_angle_beta   90.00000000
_cell_angle_gamma   90.00000000
_symmetry_Int_Tables_number   1
_chemical_formula_structural   PdRhPb4
_chemical_formula_sum   'Pd2 Rh2 Pb8'
_cell_volume   275.00328907
_cell_formula_units_Z   2
loop_
 _symmetry_equiv_pos_site_id
 _symmetry_equiv_pos_as_xyz
  1  'x, y, z'
loop_
 _atom_site_type_symbol
 _atom_site_label
 _atom_site_symmetry_multiplicity
 _atom_site_fract_x
 _atom_site_fract_y
 _atom_site_fract_z
 _atom_site_occupancy
  Pd  Pd0  1  0.00000000  0.00000000  0.00000000  1
  Pd  Pd1  1  0.50000000  0.50000000  0.50000000  1
  Rh  Rh2  1  0.00000000  0.00000000  0.50000000  1
  Rh  Rh3  1  0.50000000  0.50000000  0.00000000  1
  Pb  Pb4  1  0.66367010  0.16367010  0.25000000  1
  Pb  Pb5  1  0.33632990  0.83632990  0.25000000  1
  Pb  Pb6  1  0.83632990  0.66367010  0.25000000  1
  Pb  Pb7  1  0.16367010  0.33632990  0.25000000  1
  Pb  Pb8  1  0.16367010  0.66367010  0.75000000  1
  Pb  Pb9  1  0.83632990  0.33632990  0.75000000  1
  Pb  Pb10  1  0.33632990  0.16367010  0.75000000  1
  Pb  Pb11  1  0.66367010  0.83632990  0.75000000  1
