# generated using pymatgen
data_AsPdSe
_symmetry_space_group_name_H-M   'P 1'
_cell_length_a   6.14152941
_cell_length_b   6.14152941
_cell_length_c   6.14152941
_cell_angle_alpha   90.00000000
_cell_angle_beta   90.00000000
_cell_angle_gamma   90.00000000
_symmetry_Int_Tables_number   1
_chemical_formula_structural   AsPdSe
_chemical_formula_sum   'As4 Pd4 Se4'
_cell_volume   231.64856153
_cell_formula_units_Z   4
loop_
 _symmetry_equiv_pos_site_id
 _symmetry_equiv_pos_as_xyz
  1  'x, y, z'
loop_
 _atom_site_type_symbol
 _atom_site_label
 _atom_site_symmetry_multiplicity
 _atom_site_fract_x
 _atom_site_fract_y
 _atom_site_fract_z
 _atom_site_occupancy
  As  As0  1  0.11551842  0.88448158  0.38448158  1
  As  As1  1  0.88448158  0.38448158  0.11551842  1
  As  As2  1  0.61551842  0.61551842  0.61551842  1
  As  As3  1  0.38448158  0.11551842  0.88448158  1
  Pd  Pd4  1  0.99269609  0.50730391  0.49269609  1
  Pd  Pd5  1  0.50730391  0.49269609  0.99269609  1
  Pd  Pd6  1  0.49269609  0.99269609  0.50730391  1
  Pd  Pd7  1  0.00730391  0.00730391  0.00730391  1
  Se  Se8  1  0.11291867  0.61291867  0.88708133  1
  Se  Se9  1  0.88708133  0.11291867  0.61291867  1
  Se  Se10  1  0.61291867  0.88708133  0.11291867  1
  Se  Se11  1  0.38708133  0.38708133  0.38708133  1
