# generated using pymatgen
data_NbH
_symmetry_space_group_name_H-M   'P 1'
_cell_length_a   3.69073314
_cell_length_b   4.78640106
_cell_length_c   4.80422915
_cell_angle_alpha   90.00000000
_cell_angle_beta   90.00000000
_cell_angle_gamma   90.00000000
_symmetry_Int_Tables_number   1
_chemical_formula_structural   NbH
_chemical_formula_sum   'Nb4 H4'
_cell_volume   84.86828859
_cell_formula_units_Z   4
loop_
 _symmetry_equiv_pos_site_id
 _symmetry_equiv_pos_as_xyz
  1  'x, y, z'
loop_
 _atom_site_type_symbol
 _atom_site_label
 _atom_site_symmetry_multiplicity
 _atom_site_fract_x
 _atom_site_fract_y
 _atom_site_fract_z
 _atom_site_occupancy
  Nb  Nb0  1  0.50000000  0.75000000  0.26883888  1
  Nb  Nb1  1  0.50000000  0.25000000  0.73116112  1
  Nb  Nb2  1  0.00000000  0.25000000  0.26883888  1
  Nb  Nb3  1  0.00000000  0.75000000  0.73116112  1
  H  H4  1  0.25000000  0.00000000  0.00000000  1
  H  H5  1  0.75000000  0.00000000  0.00000000  1
  H  H6  1  0.75000000  0.50000000  0.00000000  1
  H  H7  1  0.25000000  0.50000000  0.00000000  1
