# generated using pymatgen
data_Ti(NbS2)4
_symmetry_space_group_name_H-M   'P 1'
_cell_length_a   6.70105447
_cell_length_b   6.70105447
_cell_length_c   12.30227069
_cell_angle_alpha   90.00000000
_cell_angle_beta   90.00000000
_cell_angle_gamma   120.00000000
_symmetry_Int_Tables_number   1
_chemical_formula_structural   Ti(NbS2)4
_chemical_formula_sum   'Ti2 Nb8 S16'
_cell_volume   478.41215676
_cell_formula_units_Z   2
loop_
 _symmetry_equiv_pos_site_id
 _symmetry_equiv_pos_as_xyz
  1  'x, y, z'
loop_
 _atom_site_type_symbol
 _atom_site_label
 _atom_site_symmetry_multiplicity
 _atom_site_fract_x
 _atom_site_fract_y
 _atom_site_fract_z
 _atom_site_occupancy
  Ti  Ti0  1  0.00000000  0.00000000  0.00000000  1
  Ti  Ti1  1  0.00000000  0.00000000  0.50000000  1
  Nb  Nb2  1  0.00000000  0.00000000  0.75000000  1
  Nb  Nb3  1  0.00000000  0.00000000  0.25000000  1
  Nb  Nb4  1  0.49440914  0.98881829  0.75000000  1
  Nb  Nb5  1  0.01118171  0.50559086  0.75000000  1
  Nb  Nb6  1  0.49440914  0.50559086  0.75000000  1
  Nb  Nb7  1  0.50559086  0.01118171  0.25000000  1
  Nb  Nb8  1  0.98881829  0.49440914  0.25000000  1
  Nb  Nb9  1  0.50559086  0.49440914  0.25000000  1
  S  S10  1  0.66666667  0.33333333  0.37956686  1
  S  S11  1  0.33333333  0.66666667  0.62043314  1
  S  S12  1  0.33333333  0.66666667  0.87956686  1
  S  S13  1  0.66666667  0.33333333  0.12043314  1
  S  S14  1  0.83326910  0.66653820  0.87875828  1
  S  S15  1  0.33346180  0.16673090  0.87875828  1
  S  S16  1  0.83326910  0.16673090  0.87875828  1
  S  S17  1  0.16673090  0.33346180  0.12124172  1
  S  S18  1  0.66653820  0.83326910  0.12124172  1
  S  S19  1  0.16673090  0.83326910  0.12124172  1
  S  S20  1  0.16673090  0.33346180  0.37875828  1
  S  S21  1  0.66653820  0.83326910  0.37875828  1
  S  S22  1  0.16673090  0.83326910  0.37875828  1
  S  S23  1  0.83326910  0.66653820  0.62124172  1
  S  S24  1  0.33346180  0.16673090  0.62124172  1
  S  S25  1  0.83326910  0.16673090  0.62124172  1
