# generated using pymatgen
data_Ca3(AlP2)2
_symmetry_space_group_name_H-M   'P 1'
_cell_length_a   12.65200733
_cell_length_b   9.82495720
_cell_length_c   6.45545190
_cell_angle_alpha   90.00000000
_cell_angle_beta   90.39301876
_cell_angle_gamma   90.00000000
_symmetry_Int_Tables_number   1
_chemical_formula_structural   Ca3(AlP2)2
_chemical_formula_sum   'Ca12 Al8 P16'
_cell_volume   802.42884843
_cell_formula_units_Z   4
loop_
 _symmetry_equiv_pos_site_id
 _symmetry_equiv_pos_as_xyz
  1  'x, y, z'
loop_
 _atom_site_type_symbol
 _atom_site_label
 _atom_site_symmetry_multiplicity
 _atom_site_fract_x
 _atom_site_fract_y
 _atom_site_fract_z
 _atom_site_occupancy
  Ca  Ca0  1  0.62058109  0.62890382  0.97059704  1
  Ca  Ca1  1  0.37941891  0.62890382  0.52940296  1
  Ca  Ca2  1  0.37941891  0.37109618  0.02940296  1
  Ca  Ca3  1  0.62058109  0.37109618  0.47059704  1
  Ca  Ca4  1  0.50000000  0.90110738  0.25000000  1
  Ca  Ca5  1  0.50000000  0.09889262  0.75000000  1
  Ca  Ca6  1  0.12058109  0.12890382  0.97059704  1
  Ca  Ca7  1  0.87941891  0.12890382  0.52940296  1
  Ca  Ca8  1  0.87941891  0.87109618  0.02940296  1
  Ca  Ca9  1  0.12058109  0.87109618  0.47059704  1
  Ca  Ca10  1  0.00000000  0.40110738  0.25000000  1
  Ca  Ca11  1  0.00000000  0.59889262  0.75000000  1
  Al  Al12  1  0.29631097  0.12403059  0.41087080  1
  Al  Al13  1  0.70368903  0.12403059  0.08912920  1
  Al  Al14  1  0.70368903  0.87596941  0.58912920  1
  Al  Al15  1  0.29631097  0.87596941  0.91087080  1
  Al  Al16  1  0.79631097  0.62403059  0.41087080  1
  Al  Al17  1  0.20368903  0.62403059  0.08912920  1
  Al  Al18  1  0.20368903  0.37596941  0.58912920  1
  Al  Al19  1  0.79631097  0.37596941  0.91087080  1
  P  P20  1  0.61402137  0.67204632  0.47632069  1
  P  P21  1  0.38597863  0.67204632  0.02367931  1
  P  P22  1  0.38597863  0.32795368  0.52367931  1
  P  P23  1  0.61402137  0.32795368  0.97632069  1
  P  P24  1  0.34378928  0.08567051  0.06409193  1
  P  P25  1  0.65621072  0.08567051  0.43590807  1
  P  P26  1  0.65621072  0.91432949  0.93590807  1
  P  P27  1  0.34378928  0.91432949  0.56409193  1
  P  P28  1  0.11402137  0.17204632  0.47632069  1
  P  P29  1  0.88597862  0.17204632  0.02367931  1
  P  P30  1  0.88597862  0.82795368  0.52367931  1
  P  P31  1  0.11402137  0.82795368  0.97632069  1
  P  P32  1  0.84378928  0.58567051  0.06409193  1
  P  P33  1  0.15621072  0.58567051  0.43590807  1
  P  P34  1  0.15621072  0.41432949  0.93590807  1
  P  P35  1  0.84378928  0.41432949  0.56409193  1
