# generated using pymatgen
data_Zr2CuH5
_symmetry_space_group_name_H-M   'P 1'
_cell_length_a   10.87781400
_cell_length_b   3.64991600
_cell_length_c   8.28658939
_cell_angle_alpha   90.00000000
_cell_angle_beta   123.25384581
_cell_angle_gamma   90.00000000
_symmetry_Int_Tables_number   1
_chemical_formula_structural   Zr2CuH5
_chemical_formula_sum   'Zr8 Cu4 H20'
_cell_volume   275.12883646
_cell_formula_units_Z   4
loop_
 _symmetry_equiv_pos_site_id
 _symmetry_equiv_pos_as_xyz
  1  'x, y, z'
loop_
 _atom_site_type_symbol
 _atom_site_label
 _atom_site_symmetry_multiplicity
 _atom_site_fract_x
 _atom_site_fract_y
 _atom_site_fract_z
 _atom_site_occupancy
  Zr  Zr0  1  0.08069500  0.00000000  0.84355700  1
  Zr  Zr1  1  0.91930500  0.00000000  0.15644300  1
  Zr  Zr2  1  0.17386800  0.50000000  0.57402500  1
  Zr  Zr3  1  0.82613200  0.50000000  0.42597500  1
  Zr  Zr4  1  0.58069500  0.50000000  0.84355700  1
  Zr  Zr5  1  0.41930500  0.50000000  0.15644300  1
  Zr  Zr6  1  0.67386800  0.00000000  0.57402500  1
  Zr  Zr7  1  0.32613200  0.00000000  0.42597500  1
  Cu  Cu8  1  0.37715500  0.00000000  0.84905600  1
  Cu  Cu9  1  0.62284500  0.00000000  0.15094400  1
  Cu  Cu10  1  0.87715500  0.50000000  0.84905600  1
  Cu  Cu11  1  0.12284500  0.50000000  0.15094400  1
  H  H12  1  0.13537500  0.00000000  0.42354100  1
  H  H13  1  0.86462500  0.00000000  0.57645900  1
  H  H14  1  0.96554000  0.50000000  0.32806000  1
  H  H15  1  0.03446000  0.50000000  0.67194000  1
  H  H16  1  0.81565100  0.50000000  0.01949600  1
  H  H17  1  0.18434900  0.50000000  0.98050400  1
  H  H18  1  0.18438300  0.00000000  0.70287600  1
  H  H19  1  0.81561700  0.00000000  0.29712400  1
  H  H20  1  0.38189900  0.50000000  0.85983800  1
  H  H21  1  0.61810100  0.50000000  0.14016200  1
  H  H22  1  0.63537500  0.50000000  0.42354100  1
  H  H23  1  0.36462500  0.50000000  0.57645900  1
  H  H24  1  0.46554000  0.00000000  0.32806000  1
  H  H25  1  0.53446000  0.00000000  0.67194000  1
  H  H26  1  0.31565100  0.00000000  0.01949600  1
  H  H27  1  0.68434900  0.00000000  0.98050400  1
  H  H28  1  0.68438300  0.50000000  0.70287600  1
  H  H29  1  0.31561700  0.50000000  0.29712400  1
  H  H30  1  0.88189900  0.00000000  0.85983800  1
  H  H31  1  0.11810100  0.00000000  0.14016200  1
