# generated using pymatgen
data_NaCd4As3
_symmetry_space_group_name_H-M   'P 1'
_cell_length_a   4.54467051
_cell_length_b   4.54467051
_cell_length_c   34.15040600
_cell_angle_alpha   90.00000000
_cell_angle_beta   90.00000000
_cell_angle_gamma   120.00000000
_symmetry_Int_Tables_number   1
_chemical_formula_structural   NaCd4As3
_chemical_formula_sum   'Na3 Cd12 As9'
_cell_volume   610.84539872
_cell_formula_units_Z   3
loop_
 _symmetry_equiv_pos_site_id
 _symmetry_equiv_pos_as_xyz
  1  'x, y, z'
loop_
 _atom_site_type_symbol
 _atom_site_label
 _atom_site_symmetry_multiplicity
 _atom_site_fract_x
 _atom_site_fract_y
 _atom_site_fract_z
 _atom_site_occupancy
  Na  Na0  1  0.33333333  0.66666667  0.16666667  1
  Na  Na1  1  1.00000000  1.00000000  0.50000000  1
  Na  Na2  1  0.66666667  0.33333333  0.83333333  1
  Cd  Cd3  1  0.00000000  0.00000000  0.09546900  1
  Cd  Cd4  1  0.66666667  0.33333333  0.23786433  1
  Cd  Cd5  1  0.00000000  0.00000000  0.29917600  1
  Cd  Cd6  1  0.66666667  0.33333333  0.03415733  1
  Cd  Cd7  1  0.66666667  0.33333333  0.42880233  1
  Cd  Cd8  1  0.33333333  0.66666667  0.57119767  1
  Cd  Cd9  1  0.66666667  0.33333333  0.63250933  1
  Cd  Cd10  1  0.33333333  0.66666667  0.36749067  1
  Cd  Cd11  1  0.33333333  0.66666667  0.76213567  1
  Cd  Cd12  1  0.00000000  0.00000000  0.90453100  1
  Cd  Cd13  1  0.33333333  0.66666667  0.96584267  1
  Cd  Cd14  1  0.00000000  0.00000000  0.70082400  1
  As  As15  1  0.00000000  0.00000000  0.21979500  1
  As  As16  1  0.66666667  0.33333333  0.11353833  1
  As  As17  1  0.00000000  0.00000000  0.00000000  1
  As  As18  1  0.66666667  0.33333333  0.55312833  1
  As  As19  1  0.33333333  0.66666667  0.44687167  1
  As  As20  1  0.66666667  0.33333333  0.33333333  1
  As  As21  1  0.33333333  0.66666667  0.88646167  1
  As  As22  1  0.00000000  0.00000000  0.78020500  1
  As  As23  1  0.33333333  0.66666667  0.66666667  1
