# generated using pymatgen
data_Ca9(FeN4)2
_symmetry_space_group_name_H-M   'P 1'
_cell_length_a   18.46790109
_cell_length_b   4.92554825
_cell_length_c   7.82054845
_cell_angle_alpha   90.00000000
_cell_angle_beta   111.34852204
_cell_angle_gamma   90.00000000
_symmetry_Int_Tables_number   1
_chemical_formula_structural   Ca9(FeN4)2
_chemical_formula_sum   'Ca18 Fe4 N16'
_cell_volume   662.57914275
_cell_formula_units_Z   2
loop_
 _symmetry_equiv_pos_site_id
 _symmetry_equiv_pos_as_xyz
  1  'x, y, z'
loop_
 _atom_site_type_symbol
 _atom_site_label
 _atom_site_symmetry_multiplicity
 _atom_site_fract_x
 _atom_site_fract_y
 _atom_site_fract_z
 _atom_site_occupancy
  Ca  Ca0  1  0.00000000  0.50000000  0.50000000  1
  Ca  Ca1  1  0.96193100  0.00000000  0.76563500  1
  Ca  Ca2  1  0.53806900  0.50000000  0.23436500  1
  Ca  Ca3  1  0.67318500  0.00000000  0.44852300  1
  Ca  Ca4  1  0.82681500  0.50000000  0.55147700  1
  Ca  Ca5  1  0.58795950  0.00000000  0.98375400  1
  Ca  Ca6  1  0.91204050  0.50000000  0.01624600  1
  Ca  Ca7  1  0.69401350  0.50000000  0.81888000  1
  Ca  Ca8  1  0.80598650  0.00000000  0.18112000  1
  Ca  Ca9  1  0.50000000  0.00000000  0.50000000  1
  Ca  Ca10  1  0.46193100  0.50000000  0.76563500  1
  Ca  Ca11  1  0.03806900  0.00000000  0.23436500  1
  Ca  Ca12  1  0.17318500  0.50000000  0.44852300  1
  Ca  Ca13  1  0.32681500  0.00000000  0.55147700  1
  Ca  Ca14  1  0.08795950  0.50000000  0.98375400  1
  Ca  Ca15  1  0.41204050  0.00000000  0.01624600  1
  Ca  Ca16  1  0.19401350  0.00000000  0.81888000  1
  Ca  Ca17  1  0.30598650  0.50000000  0.18112000  1
  Fe  Fe18  1  0.80648200  0.00000000  0.80087000  1
  Fe  Fe19  1  0.69351800  0.50000000  0.19913000  1
  Fe  Fe20  1  0.30648200  0.50000000  0.80087000  1
  Fe  Fe21  1  0.19351800  0.00000000  0.19913000  1
  N  N22  1  0.89083600  0.00000000  0.99898900  1
  N  N23  1  0.60916400  0.50000000  0.00101100  1
  N  N24  1  0.81806250  0.00000000  0.59137500  1
  N  N25  1  0.68193750  0.50000000  0.40862500  1
  N  N26  1  0.71337800  0.00000000  0.81057100  1
  N  N27  1  0.78662200  0.50000000  0.18942900  1
  N  N28  1  0.96360600  0.50000000  0.75307400  1
  N  N29  1  0.53639400  0.00000000  0.24692600  1
  N  N30  1  0.39083600  0.50000000  0.99898900  1
  N  N31  1  0.10916400  0.00000000  0.00101100  1
  N  N32  1  0.31806250  0.50000000  0.59137500  1
  N  N33  1  0.18193750  0.00000000  0.40862500  1
  N  N34  1  0.21337800  0.50000000  0.81057100  1
  N  N35  1  0.28662200  0.00000000  0.18942900  1
  N  N36  1  0.46360600  0.00000000  0.75307400  1
  N  N37  1  0.03639400  0.50000000  0.24692600  1
