# generated using pymatgen
data_MnFe3P2
_symmetry_space_group_name_H-M   'P 1'
_cell_length_a   5.90004500
_cell_length_b   3.38554800
_cell_length_c   10.25322619
_cell_angle_alpha   90.00000000
_cell_angle_beta   90.15011817
_cell_angle_gamma   90.00000000
_symmetry_Int_Tables_number   1
_chemical_formula_structural   MnFe3P2
_chemical_formula_sum   'Mn3 Fe9 P6'
_cell_volume   204.80631674
_cell_formula_units_Z   3
loop_
 _symmetry_equiv_pos_site_id
 _symmetry_equiv_pos_as_xyz
  1  'x, y, z'
loop_
 _atom_site_type_symbol
 _atom_site_label
 _atom_site_symmetry_multiplicity
 _atom_site_fract_x
 _atom_site_fract_y
 _atom_site_fract_z
 _atom_site_occupancy
  Mn  Mn0  1  0.59190900  0.50000000  0.99934800  1
  Mn  Mn1  1  0.09054400  0.50000000  0.50190400  1
  Mn  Mn2  1  0.20305100  0.50000000  0.20508900  1
  Fe  Fe3  1  0.70315700  0.50000000  0.70413100  1
  Fe  Fe4  1  0.70469600  0.50000000  0.29662300  1
  Fe  Fe5  1  0.20433200  0.50000000  0.79497100  1
  Fe  Fe6  1  0.25372400  0.00000000  0.99865000  1
  Fe  Fe7  1  0.75364600  0.00000000  0.50112400  1
  Fe  Fe8  1  0.37382100  0.00000000  0.37393900  1
  Fe  Fe9  1  0.87195600  0.00000000  0.87183600  1
  Fe  Fe10  1  0.87302000  0.00000000  0.12654600  1
  Fe  Fe11  1  0.37263000  0.00000000  0.62754700  1
  P  P12  1  0.99786100  0.00000000  0.33570800  1
  P  P13  1  0.49862400  0.00000000  0.83261500  1
  P  P14  1  0.49805600  0.00000000  0.16728400  1
  P  P15  1  0.99793500  0.00000000  0.66766700  1
  P  P16  1  0.00504300  0.50000000  0.99358200  1
  P  P17  1  0.50579400  0.50000000  0.50143700  1
