# generated using pymatgen
data_Cr3PN
_symmetry_space_group_name_H-M   'P 1'
_cell_length_a   3.16538400
_cell_length_b   9.38842600
_cell_length_c   7.10510700
_cell_angle_alpha   90.00000000
_cell_angle_beta   90.00000000
_cell_angle_gamma   90.00000000
_symmetry_Int_Tables_number   1
_chemical_formula_structural   Cr3PN
_chemical_formula_sum   'Cr12 P4 N4'
_cell_volume   211.14938115
_cell_formula_units_Z   4
loop_
 _symmetry_equiv_pos_site_id
 _symmetry_equiv_pos_as_xyz
  1  'x, y, z'
loop_
 _atom_site_type_symbol
 _atom_site_label
 _atom_site_symmetry_multiplicity
 _atom_site_fract_x
 _atom_site_fract_y
 _atom_site_fract_z
 _atom_site_occupancy
  Cr  Cr0  1  0.00000000  0.06029700  0.75000000  1
  Cr  Cr1  1  0.50000000  0.43970300  0.25000000  1
  Cr  Cr2  1  0.00000000  0.37315400  0.94959100  1
  Cr  Cr3  1  0.50000000  0.12684600  0.05040900  1
  Cr  Cr4  1  0.00000000  0.37315400  0.55040900  1
  Cr  Cr5  1  0.50000000  0.12684600  0.44959100  1
  Cr  Cr6  1  0.50000000  0.56029700  0.75000000  1
  Cr  Cr7  1  0.00000000  0.93970300  0.25000000  1
  Cr  Cr8  1  0.50000000  0.87315400  0.94959100  1
  Cr  Cr9  1  0.00000000  0.62684600  0.05040900  1
  Cr  Cr10  1  0.50000000  0.87315400  0.55040900  1
  Cr  Cr11  1  0.00000000  0.62684600  0.44959100  1
  P  P12  1  0.50000000  0.24776600  0.75000000  1
  P  P13  1  0.00000000  0.25223400  0.25000000  1
  P  P14  1  0.00000000  0.74776600  0.75000000  1
  P  P15  1  0.50000000  0.75223400  0.25000000  1
  N  N16  1  0.00000000  0.00000000  0.00000000  1
  N  N17  1  0.00000000  0.00000000  0.50000000  1
  N  N18  1  0.50000000  0.50000000  0.00000000  1
  N  N19  1  0.50000000  0.50000000  0.50000000  1
