# generated using pymatgen
data_Co7NiP4
_symmetry_space_group_name_H-M   'P 1'
_cell_length_a   5.52026879
_cell_length_b   3.46520214
_cell_length_c   6.52093767
_cell_angle_alpha   90.00000000
_cell_angle_beta   90.22961439
_cell_angle_gamma   90.00000000
_symmetry_Int_Tables_number   1
_chemical_formula_structural   Co7NiP4
_chemical_formula_sum   'Co7 Ni1 P4'
_cell_volume   124.73701880
_cell_formula_units_Z   1
loop_
 _symmetry_equiv_pos_site_id
 _symmetry_equiv_pos_as_xyz
  1  'x, y, z'
loop_
 _atom_site_type_symbol
 _atom_site_label
 _atom_site_symmetry_multiplicity
 _atom_site_fract_x
 _atom_site_fract_y
 _atom_site_fract_z
 _atom_site_occupancy
  Co  Co0  1  0.35408748  0.50000000  0.06625891  1
  Co  Co1  1  0.85965274  0.50000000  0.43432457  1
  Co  Co2  1  0.63932672  0.00000000  0.93219548  1
  Co  Co3  1  0.14867305  0.00000000  0.56574921  1
  Co  Co4  1  0.96234012  0.50000000  0.83482481  1
  Co  Co5  1  0.53936156  0.00000000  0.33376592  1
  Co  Co6  1  0.02613136  0.00000000  0.16686943  1
  Ni  Ni7  1  0.47138222  0.50000000  0.66368946  1
  P  P8  1  0.74428610  0.50000000  0.12170572  1
  P  P9  1  0.24740498  0.50000000  0.37681049  1
  P  P10  1  0.24680594  0.00000000  0.88171851  1
  P  P11  1  0.76055074  0.00000000  0.62208750  1
