# generated using pymatgen
data_SrIn3Hg
_symmetry_space_group_name_H-M   'P 1'
_cell_length_a   4.71724142
_cell_length_b   4.71724142
_cell_length_c   12.62092338
_cell_angle_alpha   90.00000000
_cell_angle_beta   90.00000000
_cell_angle_gamma   90.00000000
_symmetry_Int_Tables_number   1
_chemical_formula_structural   SrIn3Hg
_chemical_formula_sum   'Sr2 In6 Hg2'
_cell_volume   280.84541407
_cell_formula_units_Z   2
loop_
 _symmetry_equiv_pos_site_id
 _symmetry_equiv_pos_as_xyz
  1  'x, y, z'
loop_
 _atom_site_type_symbol
 _atom_site_label
 _atom_site_symmetry_multiplicity
 _atom_site_fract_x
 _atom_site_fract_y
 _atom_site_fract_z
 _atom_site_occupancy
  Sr  Sr0  1  0.00000000  0.00000000  0.00655681  1
  Sr  Sr1  1  0.50000000  0.50000000  0.50655681  1
  In  In2  1  0.00000000  0.50000000  0.24753634  1
  In  In3  1  0.50000000  0.00000000  0.24753634  1
  In  In4  1  0.00000000  0.00000000  0.38987805  1
  In  In5  1  0.50000000  0.00000000  0.74753634  1
  In  In6  1  0.00000000  0.50000000  0.74753634  1
  In  In7  1  0.50000000  0.50000000  0.88987805  1
  Hg  Hg8  1  0.50000000  0.50000000  0.10849347  1
  Hg  Hg9  1  0.00000000  0.00000000  0.60849347  1
