# generated using pymatgen
data_Nb5Ga13
_symmetry_space_group_name_H-M   'P 1'
_cell_length_a   3.75750973
_cell_length_b   40.29084996
_cell_length_c   3.74555062
_cell_angle_alpha   90.00000000
_cell_angle_beta   90.00000000
_cell_angle_gamma   90.00000000
_symmetry_Int_Tables_number   1
_chemical_formula_structural   Nb5Ga13
_chemical_formula_sum   'Nb10 Ga26'
_cell_volume   567.05112223
_cell_formula_units_Z   2
loop_
 _symmetry_equiv_pos_site_id
 _symmetry_equiv_pos_as_xyz
  1  'x, y, z'
loop_
 _atom_site_type_symbol
 _atom_site_label
 _atom_site_symmetry_multiplicity
 _atom_site_fract_x
 _atom_site_fract_y
 _atom_site_fract_z
 _atom_site_occupancy
  Nb  Nb0  1  0.50000000  0.39186487  0.50000000  1
  Nb  Nb1  1  0.00000000  0.10813513  0.50000000  1
  Nb  Nb2  1  0.50000000  0.21603285  0.00000000  1
  Nb  Nb3  1  0.00000000  0.28396715  0.00000000  1
  Nb  Nb4  1  0.00000000  0.50000000  0.00000000  1
  Nb  Nb5  1  0.00000000  0.89186487  0.50000000  1
  Nb  Nb6  1  0.50000000  0.60813513  0.50000000  1
  Nb  Nb7  1  0.00000000  0.71603285  0.00000000  1
  Nb  Nb8  1  0.50000000  0.78396715  0.00000000  1
  Nb  Nb9  1  0.50000000  0.00000000  0.00000000  1
  Ga  Ga10  1  0.50000000  0.05464123  0.50000000  1
  Ga  Ga11  1  0.00000000  0.44535877  0.50000000  1
  Ga  Ga12  1  0.50000000  0.16410444  0.50000000  1
  Ga  Ga13  1  0.00000000  0.33589556  0.50000000  1
  Ga  Ga14  1  0.50000000  0.27161995  0.50000000  1
  Ga  Ga15  1  0.00000000  0.00000000  0.50000000  1
  Ga  Ga16  1  0.00000000  0.05444875  0.00000000  1
  Ga  Ga17  1  0.50000000  0.44555125  0.00000000  1
  Ga  Ga18  1  0.00000000  0.16453472  0.00000000  1
  Ga  Ga19  1  0.50000000  0.33546528  0.00000000  1
  Ga  Ga20  1  0.00000000  0.38841027  0.00000000  1
  Ga  Ga21  1  0.50000000  0.11158973  0.00000000  1
  Ga  Ga22  1  0.00000000  0.22838005  0.50000000  1
  Ga  Ga23  1  0.00000000  0.55464123  0.50000000  1
  Ga  Ga24  1  0.50000000  0.94535877  0.50000000  1
  Ga  Ga25  1  0.00000000  0.66410444  0.50000000  1
  Ga  Ga26  1  0.50000000  0.83589556  0.50000000  1
  Ga  Ga27  1  0.00000000  0.77161995  0.50000000  1
  Ga  Ga28  1  0.50000000  0.50000000  0.50000000  1
  Ga  Ga29  1  0.50000000  0.55444875  0.00000000  1
  Ga  Ga30  1  0.00000000  0.94555125  0.00000000  1
  Ga  Ga31  1  0.50000000  0.66453472  0.00000000  1
  Ga  Ga32  1  0.00000000  0.83546528  0.00000000  1
  Ga  Ga33  1  0.50000000  0.88841027  0.00000000  1
  Ga  Ga34  1  0.00000000  0.61158973  0.00000000  1
  Ga  Ga35  1  0.50000000  0.72838005  0.50000000  1
