# generated using pymatgen
data_CaAgGe
_symmetry_space_group_name_H-M   'P 1'
_cell_length_a   10.74370000
_cell_length_b   4.57443800
_cell_length_c   7.35953957
_cell_angle_alpha   90.00000000
_cell_angle_beta   132.35042613
_cell_angle_gamma   90.00000000
_symmetry_Int_Tables_number   1
_chemical_formula_structural   CaAgGe
_chemical_formula_sum   'Ca4 Ag4 Ge4'
_cell_volume   267.30637722
_cell_formula_units_Z   4
loop_
 _symmetry_equiv_pos_site_id
 _symmetry_equiv_pos_as_xyz
  1  'x, y, z'
loop_
 _atom_site_type_symbol
 _atom_site_label
 _atom_site_symmetry_multiplicity
 _atom_site_fract_x
 _atom_site_fract_y
 _atom_site_fract_z
 _atom_site_occupancy
  Ca  Ca0  1  0.54251300  0.00000000  0.78766700  1
  Ca  Ca1  1  0.45748700  0.00000000  0.21233300  1
  Ca  Ca2  1  0.04251300  0.50000000  0.78766700  1
  Ca  Ca3  1  0.95748700  0.50000000  0.21233300  1
  Ag  Ag4  1  0.67459900  0.50000000  0.61786200  1
  Ag  Ag5  1  0.32540100  0.50000000  0.38213800  1
  Ag  Ag6  1  0.17459900  0.00000000  0.61786200  1
  Ag  Ag7  1  0.82540100  0.00000000  0.38213800  1
  Ge  Ge8  1  0.84616500  0.00000000  0.79758100  1
  Ge  Ge9  1  0.15383500  0.00000000  0.20241900  1
  Ge  Ge10  1  0.34616500  0.50000000  0.79758100  1
  Ge  Ge11  1  0.65383500  0.50000000  0.20241900  1
