# generated using pymatgen
data_In6Te10Pb
_symmetry_space_group_name_H-M   'P 1'
_cell_length_a   15.59876217
_cell_length_b   15.30095824
_cell_length_c   10.82129236
_cell_angle_alpha   90.00000000
_cell_angle_beta   90.25167988
_cell_angle_gamma   90.00000000
_symmetry_Int_Tables_number   1
_chemical_formula_structural   In6Te10Pb
_chemical_formula_sum   'In24 Te40 Pb4'
_cell_volume   2582.75794945
_cell_formula_units_Z   4
loop_
 _symmetry_equiv_pos_site_id
 _symmetry_equiv_pos_as_xyz
  1  'x, y, z'
loop_
 _atom_site_type_symbol
 _atom_site_label
 _atom_site_symmetry_multiplicity
 _atom_site_fract_x
 _atom_site_fract_y
 _atom_site_fract_z
 _atom_site_occupancy
  In  In0  1  0.54041867  0.71587352  0.33184814  1
  In  In1  1  0.74584299  0.08442895  0.74520942  1
  In  In2  1  0.45605411  0.20010721  0.17229917  1
  In  In3  1  0.54394589  0.20010721  0.82770083  1
  In  In4  1  0.45958133  0.71587352  0.66815186  1
  In  In5  1  0.25415701  0.08442895  0.25479058  1
  In  In6  1  0.13903984  0.01547692  0.57573860  1
  In  In7  1  0.27993594  0.85025580  0.84069427  1
  In  In8  1  0.29032550  0.13331321  0.87844646  1
  In  In9  1  0.70967450  0.13331321  0.12155354  1
  In  In10  1  0.86096016  0.01547692  0.42426140  1
  In  In11  1  0.72006406  0.85025580  0.15930573  1
  In  In12  1  0.04041867  0.21587352  0.33184814  1
  In  In13  1  0.24584299  0.58442895  0.74520942  1
  In  In14  1  0.95605411  0.70010721  0.17229917  1
  In  In15  1  0.04394589  0.70010721  0.82770083  1
  In  In16  1  0.95958133  0.21587352  0.66815186  1
  In  In17  1  0.75415701  0.58442895  0.25479058  1
  In  In18  1  0.63903984  0.51547692  0.57573860  1
  In  In19  1  0.77993594  0.35025580  0.84069427  1
  In  In20  1  0.79032550  0.63331321  0.87844646  1
  In  In21  1  0.20967450  0.63331321  0.12155354  1
  In  In22  1  0.36096016  0.51547692  0.42426140  1
  In  In23  1  0.22006406  0.35025580  0.15930573  1
  Te  Te24  1  0.50000000  0.32890600  0.00000000  1
  Te  Te25  1  0.08822822  0.08734142  0.16195168  1
  Te  Te26  1  0.91177178  0.08734142  0.83804832  1
  Te  Te27  1  0.16729680  0.99827908  0.83530302  1
  Te  Te28  1  0.83270320  0.99827908  0.16469698  1
  Te  Te29  1  0.27633437  0.95277828  0.43219288  1
  Te  Te30  1  0.43958779  0.88572823  0.74564996  1
  Te  Te31  1  0.40031419  0.16743363  0.67778572  1
  Te  Te32  1  0.59968581  0.16743363  0.32221428  1
  Te  Te33  1  0.72366563  0.95277828  0.56780712  1
  Te  Te34  1  0.56041221  0.88572823  0.25435004  1
  Te  Te35  1  0.50000000  0.41032850  0.50000000  1
  Te  Te36  1  0.29248525  0.79438590  0.08909458  1
  Te  Te37  1  0.70751475  0.79438590  0.91090542  1
  Te  Te38  1  0.62845404  0.69870689  0.56773495  1
  Te  Te39  1  0.68037402  0.24964239  0.66872123  1
  Te  Te40  1  0.38113640  0.04649031  0.07067359  1
  Te  Te41  1  0.61886360  0.04649031  0.92932641  1
  Te  Te42  1  0.37154596  0.69870689  0.43226505  1
  Te  Te43  1  0.31962598  0.24964239  0.33127877  1
  Te  Te44  1  0.00000000  0.82890600  0.00000000  1
  Te  Te45  1  0.58822822  0.58734142  0.16195168  1
  Te  Te46  1  0.41177178  0.58734142  0.83804832  1
  Te  Te47  1  0.66729680  0.49827908  0.83530302  1
  Te  Te48  1  0.33270320  0.49827908  0.16469698  1
  Te  Te49  1  0.77633437  0.45277828  0.43219288  1
  Te  Te50  1  0.93958779  0.38572823  0.74564996  1
  Te  Te51  1  0.90031419  0.66743363  0.67778572  1
  Te  Te52  1  0.09968581  0.66743363  0.32221428  1
  Te  Te53  1  0.22366563  0.45277828  0.56780712  1
  Te  Te54  1  0.06041221  0.38572823  0.25435004  1
  Te  Te55  1  0.00000000  0.91032850  0.50000000  1
  Te  Te56  1  0.79248525  0.29438590  0.08909458  1
  Te  Te57  1  0.20751475  0.29438590  0.91090542  1
  Te  Te58  1  0.12845404  0.19870689  0.56773495  1
  Te  Te59  1  0.18037402  0.74964239  0.66872123  1
  Te  Te60  1  0.88113640  0.54649031  0.07067359  1
  Te  Te61  1  0.11886360  0.54649031  0.92932641  1
  Te  Te62  1  0.87154596  0.19870689  0.43226505  1
  Te  Te63  1  0.81962598  0.74964239  0.33127877  1
  Pb  Pb64  1  0.86578511  0.86989302  0.75012492  1
  Pb  Pb65  1  0.13421489  0.86989302  0.24987508  1
  Pb  Pb66  1  0.36578511  0.36989302  0.75012492  1
  Pb  Pb67  1  0.63421489  0.36989302  0.24987508  1
