# generated using pymatgen
data_MoSeS
_symmetry_space_group_name_H-M   'P 1'
_cell_length_a   3.25019825
_cell_length_b   3.25019825
_cell_length_c   35.59536014
_cell_angle_alpha   90.00000000
_cell_angle_beta   90.00000000
_cell_angle_gamma   120.00000000
_symmetry_Int_Tables_number   1
_chemical_formula_structural   MoSeS
_chemical_formula_sum   'Mo4 Se4 S4'
_cell_volume   325.64448418
_cell_formula_units_Z   4
loop_
 _symmetry_equiv_pos_site_id
 _symmetry_equiv_pos_as_xyz
  1  'x, y, z'
loop_
 _atom_site_type_symbol
 _atom_site_label
 _atom_site_symmetry_multiplicity
 _atom_site_fract_x
 _atom_site_fract_y
 _atom_site_fract_z
 _atom_site_occupancy
  Mo  Mo0  1  0.66666667  0.33333333  0.09426139  1
  Mo  Mo1  1  0.66666667  0.33333333  0.46970388  1
  Mo  Mo2  1  0.00000000  0.00000000  0.28219037  1
  Mo  Mo3  1  0.00000000  0.00000000  0.65677631  1
  Se  Se4  1  0.66666667  0.33333333  0.32934151  1
  Se  Se5  1  0.66666667  0.33333333  0.70389674  1
  Se  Se6  1  0.66666667  0.33333333  0.23500369  1
  Se  Se7  1  0.66666667  0.33333333  0.60961924  1
  S  S8  1  0.00000000  0.00000000  0.05125044  1
  S  S9  1  0.00000000  0.00000000  0.42666894  1
  S  S10  1  0.00000000  0.00000000  0.13729610  1
  S  S11  1  0.00000000  0.00000000  0.51274141  1
