# generated using pymatgen
data_CdPSe3
_symmetry_space_group_name_H-M   'P 1'
_cell_length_a   6.56283572
_cell_length_b   6.56283572
_cell_length_c   21.04737470
_cell_angle_alpha   90.00000000
_cell_angle_beta   90.00000000
_cell_angle_gamma   120.00000000
_symmetry_Int_Tables_number   1
_chemical_formula_structural   CdPSe3
_chemical_formula_sum   'Cd6 P6 Se18'
_cell_volume   785.07587323
_cell_formula_units_Z   6
loop_
 _symmetry_equiv_pos_site_id
 _symmetry_equiv_pos_as_xyz
  1  'x, y, z'
loop_
 _atom_site_type_symbol
 _atom_site_label
 _atom_site_symmetry_multiplicity
 _atom_site_fract_x
 _atom_site_fract_y
 _atom_site_fract_z
 _atom_site_occupancy
  Cd  Cd0  1  0.66666667  0.33333333  0.16442467  1
  Cd  Cd1  1  0.00000000  0.00000000  0.16890866  1
  Cd  Cd2  1  0.33333333  0.66666667  0.49775801  1
  Cd  Cd3  1  0.66666667  0.33333333  0.50224199  1
  Cd  Cd4  1  0.00000000  0.00000000  0.83109134  1
  Cd  Cd5  1  0.33333333  0.66666667  0.83557533  1
  P  P6  1  0.33333333  0.66666667  0.22041650  1
  P  P7  1  0.33333333  0.66666667  0.11291684  1
  P  P8  1  0.00000000  0.00000000  0.55374983  1
  P  P9  1  0.00000000  0.00000000  0.44625017  1
  P  P10  1  0.66666667  0.33333333  0.88708316  1
  P  P11  1  0.66666667  0.33333333  0.77958350  1
  Se  Se12  1  0.01112778  0.35035477  0.25094848  1
  Se  Se13  1  0.64964523  0.66077301  0.25094848  1
  Se  Se14  1  0.33922699  0.98887222  0.25094848  1
  Se  Se15  1  0.65553889  0.98297856  0.08238485  1
  Se  Se16  1  0.01702144  0.67256032  0.08238485  1
  Se  Se17  1  0.32743968  0.34446111  0.08238485  1
  Se  Se18  1  0.67779445  0.68368810  0.58428181  1
  Se  Se19  1  0.31631190  0.99410634  0.58428181  1
  Se  Se20  1  0.00589366  0.32220555  0.58428181  1
  Se  Se21  1  0.32220555  0.31631190  0.41571819  1
  Se  Se22  1  0.68368810  0.00589366  0.41571819  1
  Se  Se23  1  0.99410634  0.67779445  0.41571819  1
  Se  Se24  1  0.34446111  0.01702144  0.91761515  1
  Se  Se25  1  0.98297856  0.32743968  0.91761515  1
  Se  Se26  1  0.67256032  0.65553889  0.91761515  1
  Se  Se27  1  0.98887222  0.64964523  0.74905152  1
  Se  Se28  1  0.35035477  0.33922699  0.74905152  1
  Se  Se29  1  0.66077301  0.01112778  0.74905152  1
