# generated using pymatgen
data_Hf2NiS4
_symmetry_space_group_name_H-M   'P 1'
_cell_length_a   13.02727600
_cell_length_b   3.55132000
_cell_length_c   6.10366032
_cell_angle_alpha   90.00000000
_cell_angle_beta   117.27927498
_cell_angle_gamma   90.00000000
_symmetry_Int_Tables_number   1
_chemical_formula_structural   Hf2NiS4
_chemical_formula_sum   'Hf4 Ni2 S8'
_cell_volume   250.97447510
_cell_formula_units_Z   2
loop_
 _symmetry_equiv_pos_site_id
 _symmetry_equiv_pos_as_xyz
  1  'x, y, z'
loop_
 _atom_site_type_symbol
 _atom_site_label
 _atom_site_symmetry_multiplicity
 _atom_site_fract_x
 _atom_site_fract_y
 _atom_site_fract_z
 _atom_site_occupancy
  Hf  Hf0  1  0.24489400  0.50000000  0.74606100  1
  Hf  Hf1  1  0.25510600  0.00000000  0.25393900  1
  Hf  Hf2  1  0.74489400  0.00000000  0.74606100  1
  Hf  Hf3  1  0.75510600  0.50000000  0.25393900  1
  Ni  Ni4  1  0.00000000  0.00000000  0.00000000  1
  Ni  Ni5  1  0.50000000  0.50000000  0.00000000  1
  S  S6  1  0.11696800  0.00000000  0.79226300  1
  S  S7  1  0.11740900  0.50000000  0.28097000  1
  S  S8  1  0.38259100  0.00000000  0.71903000  1
  S  S9  1  0.38303200  0.50000000  0.20773700  1
  S  S10  1  0.61696800  0.50000000  0.79226300  1
  S  S11  1  0.61740900  0.00000000  0.28097000  1
  S  S12  1  0.88259100  0.50000000  0.71903000  1
  S  S13  1  0.88303200  0.00000000  0.20773700  1
