# generated using pymatgen
data_K2CuAs
_symmetry_space_group_name_H-M   'P 1'
_cell_length_a   7.59198877
_cell_length_b   10.04796062
_cell_length_c   5.82699999
_cell_angle_alpha   90.00000000
_cell_angle_beta   90.00000000
_cell_angle_gamma   90.00000000
_symmetry_Int_Tables_number   1
_chemical_formula_structural   K2CuAs
_chemical_formula_sum   'K8 Cu4 As4'
_cell_volume   444.50689172
_cell_formula_units_Z   4
loop_
 _symmetry_equiv_pos_site_id
 _symmetry_equiv_pos_as_xyz
  1  'x, y, z'
loop_
 _atom_site_type_symbol
 _atom_site_label
 _atom_site_symmetry_multiplicity
 _atom_site_fract_x
 _atom_site_fract_y
 _atom_site_fract_z
 _atom_site_occupancy
  K  K0  1  0.64705148  0.66881850  0.75000000  1
  K  K1  1  0.35294852  0.33118150  0.25000000  1
  K  K2  1  0.35294852  0.66881850  0.25000000  1
  K  K3  1  0.64705148  0.33118150  0.75000000  1
  K  K4  1  0.14705148  0.16881850  0.75000000  1
  K  K5  1  0.85294852  0.83118150  0.25000000  1
  K  K6  1  0.85294852  0.16881850  0.25000000  1
  K  K7  1  0.14705148  0.83118150  0.75000000  1
  Cu  Cu8  1  0.50000000  0.00000000  0.50000000  1
  Cu  Cu9  1  0.50000000  0.00000000  0.00000000  1
  Cu  Cu10  1  0.00000000  0.50000000  0.50000000  1
  Cu  Cu11  1  0.00000000  0.50000000  0.00000000  1
  As  As12  1  0.73922211  0.00000000  0.75000000  1
  As  As13  1  0.26077789  0.00000000  0.25000000  1
  As  As14  1  0.23922211  0.50000000  0.75000000  1
  As  As15  1  0.76077789  0.50000000  0.25000000  1
