# generated using pymatgen
data_Ni3(PbS)2
_symmetry_space_group_name_H-M   'P 1'
_cell_length_a   8.03003404
_cell_length_b   8.03003404
_cell_length_c   8.03003404
_cell_angle_alpha   90.00000000
_cell_angle_beta   90.00000000
_cell_angle_gamma   90.00000000
_symmetry_Int_Tables_number   1
_chemical_formula_structural   Ni3(PbS)2
_chemical_formula_sum   'Ni12 Pb8 S8'
_cell_volume   517.78821182
_cell_formula_units_Z   4
loop_
 _symmetry_equiv_pos_site_id
 _symmetry_equiv_pos_as_xyz
  1  'x, y, z'
loop_
 _atom_site_type_symbol
 _atom_site_label
 _atom_site_symmetry_multiplicity
 _atom_site_fract_x
 _atom_site_fract_y
 _atom_site_fract_z
 _atom_site_occupancy
  Ni  Ni0  1  0.25000000  0.99161410  0.50000000  1
  Ni  Ni1  1  0.50838590  0.50000000  0.75000000  1
  Ni  Ni2  1  0.50000000  0.25000000  0.99161410  1
  Ni  Ni3  1  0.75000000  0.50838590  0.50000000  1
  Ni  Ni4  1  0.99161410  0.50000000  0.25000000  1
  Ni  Ni5  1  0.50000000  0.75000000  0.50838590  1
  Ni  Ni6  1  0.75000000  0.49161410  0.00000000  1
  Ni  Ni7  1  0.00838590  0.00000000  0.25000000  1
  Ni  Ni8  1  0.00000000  0.75000000  0.49161410  1
  Ni  Ni9  1  0.25000000  0.00838590  0.00000000  1
  Ni  Ni10  1  0.49161410  0.00000000  0.75000000  1
  Ni  Ni11  1  0.00000000  0.25000000  0.00838590  1
  Pb  Pb12  1  0.25359396  0.74640604  0.24640603  1
  Pb  Pb13  1  0.24640603  0.25359396  0.74640604  1
  Pb  Pb14  1  0.74640604  0.24640604  0.25359396  1
  Pb  Pb15  1  0.25359396  0.25359396  0.25359396  1
  Pb  Pb16  1  0.75359396  0.24640604  0.74640604  1
  Pb  Pb17  1  0.74640604  0.75359396  0.24640604  1
  Pb  Pb18  1  0.24640604  0.74640604  0.75359396  1
  Pb  Pb19  1  0.75359396  0.75359396  0.75359396  1
  S  S20  1  0.48501905  0.51498095  0.01498095  1
  S  S21  1  0.01498095  0.48501905  0.51498095  1
  S  S22  1  0.51498095  0.01498095  0.48501905  1
  S  S23  1  0.48501905  0.48501905  0.48501905  1
  S  S24  1  0.98501905  0.01498095  0.51498095  1
  S  S25  1  0.51498095  0.98501905  0.01498095  1
  S  S26  1  0.01498095  0.51498095  0.98501905  1
  S  S27  1  0.98501905  0.98501905  0.98501905  1
