# generated using pymatgen
data_Te2Ir
_symmetry_space_group_name_H-M   'P 1'
_cell_length_a   20.04991252
_cell_length_b   4.02740481
_cell_length_c   5.40559745
_cell_angle_alpha   90.00000000
_cell_angle_beta   90.37699782
_cell_angle_gamma   90.00000000
_symmetry_Int_Tables_number   1
_chemical_formula_structural   Te2Ir
_chemical_formula_sum   'Te12 Ir6'
_cell_volume   436.48775603
_cell_formula_units_Z   6
loop_
 _symmetry_equiv_pos_site_id
 _symmetry_equiv_pos_as_xyz
  1  'x, y, z'
loop_
 _atom_site_type_symbol
 _atom_site_label
 _atom_site_symmetry_multiplicity
 _atom_site_fract_x
 _atom_site_fract_y
 _atom_site_fract_z
 _atom_site_occupancy
  Te  Te0  1  0.37896449  0.50000000  0.28660008  1
  Te  Te1  1  0.12103551  0.00000000  0.71339992  1
  Te  Te2  1  0.28075092  0.50000000  0.76173856  1
  Te  Te3  1  0.04423184  0.50000000  0.22191677  1
  Te  Te4  1  0.45576816  0.00000000  0.77808323  1
  Te  Te5  1  0.21924908  0.00000000  0.23826144  1
  Te  Te6  1  0.87896449  0.00000000  0.28660008  1
  Te  Te7  1  0.62103551  0.50000000  0.71339992  1
  Te  Te8  1  0.78075092  0.00000000  0.76173856  1
  Te  Te9  1  0.54423184  0.00000000  0.22191677  1
  Te  Te10  1  0.95576816  0.50000000  0.77808323  1
  Te  Te11  1  0.71924908  0.50000000  0.23826144  1
  Ir  Ir12  1  0.00000000  0.00000000  0.50000000  1
  Ir  Ir13  1  0.34070813  0.00000000  0.00198378  1
  Ir  Ir14  1  0.15929187  0.50000000  0.99801622  1
  Ir  Ir15  1  0.50000000  0.50000000  0.50000000  1
  Ir  Ir16  1  0.84070813  0.50000000  0.00198378  1
  Ir  Ir17  1  0.65929187  0.00000000  0.99801622  1
