# generated using pymatgen
data_ScCdNi4
_symmetry_space_group_name_H-M   'P 1'
_cell_length_a   6.82109322
_cell_length_b   6.82109322
_cell_length_c   6.82109322
_cell_angle_alpha   90.00000000
_cell_angle_beta   90.00000000
_cell_angle_gamma   90.00000000
_symmetry_Int_Tables_number   1
_chemical_formula_structural   ScCdNi4
_chemical_formula_sum   'Sc4 Cd4 Ni16'
_cell_volume   317.36713778
_cell_formula_units_Z   4
loop_
 _symmetry_equiv_pos_site_id
 _symmetry_equiv_pos_as_xyz
  1  'x, y, z'
loop_
 _atom_site_type_symbol
 _atom_site_label
 _atom_site_symmetry_multiplicity
 _atom_site_fract_x
 _atom_site_fract_y
 _atom_site_fract_z
 _atom_site_occupancy
  Sc  Sc0  1  0.00000000  0.00000000  0.00000000  1
  Sc  Sc1  1  0.00000000  0.50000000  0.50000000  1
  Sc  Sc2  1  0.50000000  0.00000000  0.50000000  1
  Sc  Sc3  1  0.50000000  0.50000000  0.00000000  1
  Cd  Cd4  1  0.25000000  0.25000000  0.25000000  1
  Cd  Cd5  1  0.25000000  0.75000000  0.75000000  1
  Cd  Cd6  1  0.75000000  0.25000000  0.75000000  1
  Cd  Cd7  1  0.75000000  0.75000000  0.25000000  1
  Ni  Ni8  1  0.87555316  0.12444684  0.37555316  1
  Ni  Ni9  1  0.62444684  0.37555316  0.37555316  1
  Ni  Ni10  1  0.62444684  0.12444684  0.12444684  1
  Ni  Ni11  1  0.87555316  0.37555316  0.12444684  1
  Ni  Ni12  1  0.87555316  0.62444684  0.87555316  1
  Ni  Ni13  1  0.62444684  0.87555316  0.87555316  1
  Ni  Ni14  1  0.62444684  0.62444684  0.62444684  1
  Ni  Ni15  1  0.87555316  0.87555316  0.62444684  1
  Ni  Ni16  1  0.37555316  0.12444684  0.87555316  1
  Ni  Ni17  1  0.12444684  0.37555316  0.87555316  1
  Ni  Ni18  1  0.12444684  0.12444684  0.62444684  1
  Ni  Ni19  1  0.37555316  0.37555316  0.62444684  1
  Ni  Ni20  1  0.37555316  0.62444684  0.37555316  1
  Ni  Ni21  1  0.12444684  0.87555316  0.37555316  1
  Ni  Ni22  1  0.12444684  0.62444684  0.12444684  1
  Ni  Ni23  1  0.37555316  0.87555316  0.12444684  1
