# generated using pymatgen
data_Ca2Ni10H
_symmetry_space_group_name_H-M   'P 1'
_cell_length_a   4.92727367
_cell_length_b   8.78281521
_cell_length_c   7.80746000
_cell_angle_alpha   90.00000000
_cell_angle_beta   90.00000000
_cell_angle_gamma   90.00000000
_symmetry_Int_Tables_number   1
_chemical_formula_structural   Ca2Ni10H
_chemical_formula_sum   'Ca4 Ni20 H2'
_cell_volume   337.87044041
_cell_formula_units_Z   2
loop_
 _symmetry_equiv_pos_site_id
 _symmetry_equiv_pos_as_xyz
  1  'x, y, z'
loop_
 _atom_site_type_symbol
 _atom_site_label
 _atom_site_symmetry_multiplicity
 _atom_site_fract_x
 _atom_site_fract_y
 _atom_site_fract_z
 _atom_site_occupancy
  Ca  Ca0  1  0.00000000  0.00000000  0.00000000  1
  Ca  Ca1  1  0.00000000  0.00000000  0.50000000  1
  Ca  Ca2  1  0.50000000  0.50000000  0.00000000  1
  Ca  Ca3  1  0.50000000  0.50000000  0.50000000  1
  Ni  Ni4  1  0.00000000  0.31424100  0.00000000  1
  Ni  Ni5  1  0.50000000  0.18575900  0.00000000  1
  Ni  Ni6  1  0.50000000  0.00000000  0.24336500  1
  Ni  Ni7  1  0.75000000  0.25000000  0.25632100  1
  Ni  Ni8  1  0.25000000  0.25000000  0.25632100  1
  Ni  Ni9  1  0.00000000  0.34247300  0.50000000  1
  Ni  Ni10  1  0.50000000  0.15752700  0.50000000  1
  Ni  Ni11  1  0.50000000  0.00000000  0.75663500  1
  Ni  Ni12  1  0.75000000  0.25000000  0.74367900  1
  Ni  Ni13  1  0.25000000  0.25000000  0.74367900  1
  Ni  Ni14  1  0.50000000  0.81424100  0.00000000  1
  Ni  Ni15  1  0.00000000  0.68575900  0.00000000  1
  Ni  Ni16  1  0.00000000  0.50000000  0.24336500  1
  Ni  Ni17  1  0.25000000  0.75000000  0.25632100  1
  Ni  Ni18  1  0.75000000  0.75000000  0.25632100  1
  Ni  Ni19  1  0.50000000  0.84247300  0.50000000  1
  Ni  Ni20  1  0.00000000  0.65752700  0.50000000  1
  Ni  Ni21  1  0.00000000  0.50000000  0.75663500  1
  Ni  Ni22  1  0.25000000  0.75000000  0.74367900  1
  Ni  Ni23  1  0.75000000  0.75000000  0.74367900  1
  H  H24  1  0.50000000  0.00000000  0.00000000  1
  H  H25  1  0.00000000  0.50000000  0.00000000  1
