# generated using pymatgen
data_Hf(PS3)2
_symmetry_space_group_name_H-M   'P 1'
_cell_length_a   6.96511374
_cell_length_b   6.96780955
_cell_length_c   11.55696751
_cell_angle_alpha   101.43190392
_cell_angle_beta   101.43884688
_cell_angle_gamma   109.97190128
_symmetry_Int_Tables_number   1
_chemical_formula_structural   Hf(PS3)2
_chemical_formula_sum   'Hf2 P4 S12'
_cell_volume   494.67692273
_cell_formula_units_Z   2
loop_
 _symmetry_equiv_pos_site_id
 _symmetry_equiv_pos_as_xyz
  1  'x, y, z'
loop_
 _atom_site_type_symbol
 _atom_site_label
 _atom_site_symmetry_multiplicity
 _atom_site_fract_x
 _atom_site_fract_y
 _atom_site_fract_z
 _atom_site_occupancy
  Hf  Hf0  1  0.14957022  0.15074073  0.29980316  1
  Hf  Hf1  1  0.39929646  0.89942945  0.79971068  1
  P  P2  1  0.26475731  0.14172355  0.62449248  1
  P  P3  1  0.39218052  0.01637337  0.12481074  1
  P  P4  1  0.73201736  0.11001353  0.12462928  1
  P  P5  1  0.35873401  0.48180777  0.62489514  1
  S  S6  1  0.33092099  0.28248220  0.14255854  1
  S  S7  1  0.81100940  0.86167884  0.14277473  1
  S  S8  1  0.03039817  0.98268343  0.46259141  1
  S  S9  1  0.43188138  0.47988481  0.46309075  1
  S  S10  1  0.72944461  0.18206293  0.96258161  1
  S  S11  1  0.23225776  0.78156458  0.96306864  1
  S  S12  1  0.61537729  0.67249424  0.76889207  1
  S  S13  1  0.15176082  0.09458754  0.76842651  1
  S  S14  1  0.34552451  0.90388807  0.26894785  1
  S  S15  1  0.92284259  0.36690165  0.26856518  1
  S  S16  1  0.53105137  0.08044779  0.64233330  1
  S  S17  1  0.11028222  0.56077452  0.64273992  1
