# generated using pymatgen
data_Sc2Co12P7
_symmetry_space_group_name_H-M   'P 1'
_cell_length_a   8.95679698
_cell_length_b   8.95679698
_cell_length_c   3.53730300
_cell_angle_alpha   90.00000000
_cell_angle_beta   90.00000000
_cell_angle_gamma   120.00000000
_symmetry_Int_Tables_number   1
_chemical_formula_structural   Sc2Co12P7
_chemical_formula_sum   'Sc2 Co12 P7'
_cell_volume   245.75839070
_cell_formula_units_Z   1
loop_
 _symmetry_equiv_pos_site_id
 _symmetry_equiv_pos_as_xyz
  1  'x, y, z'
loop_
 _atom_site_type_symbol
 _atom_site_label
 _atom_site_symmetry_multiplicity
 _atom_site_fract_x
 _atom_site_fract_y
 _atom_site_fract_z
 _atom_site_occupancy
  Sc  Sc0  1  0.66666667  0.33333333  0.00000000  1
  Sc  Sc1  1  0.00000000  0.00000000  0.50000000  1
  Co  Co2  1  0.77164567  0.04220533  0.00000000  1
  Co  Co3  1  0.95779467  0.72944033  0.00000000  1
  Co  Co4  1  0.27055967  0.22835433  0.00000000  1
  Co  Co5  1  0.48822267  0.54594033  0.00000000  1
  Co  Co6  1  0.45405967  0.94228233  0.00000000  1
  Co  Co7  1  0.05771767  0.51177733  0.00000000  1
  Co  Co8  1  0.71528067  0.61129633  0.50000000  1
  Co  Co9  1  0.38870367  0.10398433  0.50000000  1
  Co  Co10  1  0.89601567  0.28471933  0.50000000  1
  Co  Co11  1  0.56687167  0.79872833  0.50000000  1
  Co  Co12  1  0.20127167  0.76814333  0.50000000  1
  Co  Co13  1  0.23185667  0.43312833  0.50000000  1
  P  P14  1  0.74286867  0.78386333  0.00000000  1
  P  P15  1  0.21613667  0.95900533  0.00000000  1
  P  P16  1  0.04099467  0.25713133  0.00000000  1
  P  P17  1  0.44887167  0.37386133  0.50000000  1
  P  P18  1  0.62613867  0.07501033  0.50000000  1
  P  P19  1  0.92498967  0.55112833  0.50000000  1
  P  P20  1  0.33333333  0.66666667  0.00000000  1
