# generated using pymatgen
data_TlV5S8
_symmetry_space_group_name_H-M   'P 1'
_cell_length_a   17.97924651
_cell_length_b   3.45942896
_cell_length_c   8.56776544
_cell_angle_alpha   90.00000000
_cell_angle_beta   105.34037893
_cell_angle_gamma   90.00000000
_symmetry_Int_Tables_number   1
_chemical_formula_structural   TlV5S8
_chemical_formula_sum   'Tl2 V10 S16'
_cell_volume   513.91076015
_cell_formula_units_Z   2
loop_
 _symmetry_equiv_pos_site_id
 _symmetry_equiv_pos_as_xyz
  1  'x, y, z'
loop_
 _atom_site_type_symbol
 _atom_site_label
 _atom_site_symmetry_multiplicity
 _atom_site_fract_x
 _atom_site_fract_y
 _atom_site_fract_z
 _atom_site_occupancy
  Tl  Tl0  1  0.00000000  0.02900870  0.00000000  1
  Tl  Tl1  1  0.50000000  0.52900870  0.00000000  1
  V  V2  1  0.34582645  0.53536038  0.52294596  1
  V  V3  1  0.15417355  0.03536038  0.47705404  1
  V  V4  1  0.00000000  0.53565297  0.50000000  1
  V  V5  1  0.21092313  0.03565103  0.84941865  1
  V  V6  1  0.28907687  0.53565103  0.15058135  1
  V  V7  1  0.84582645  0.03536038  0.52294596  1
  V  V8  1  0.65417355  0.53536038  0.47705404  1
  V  V9  1  0.50000000  0.03565297  0.50000000  1
  V  V10  1  0.71092313  0.53565103  0.84941865  1
  V  V11  1  0.78907687  0.03565103  0.15058135  1
  S  S12  1  0.07637356  0.03565268  0.66330278  1
  S  S13  1  0.42362644  0.53565268  0.33669722  1
  S  S14  1  0.41681136  0.03531635  0.68357997  1
  S  S15  1  0.08318864  0.53531635  0.31642003  1
  S  S16  1  0.23823158  0.53559477  0.65767034  1
  S  S17  1  0.26176842  0.03559477  0.34232966  1
  S  S18  1  0.16418762  0.53559446  0.99068134  1
  S  S19  1  0.33581238  0.03559446  0.00931866  1
  S  S20  1  0.57637356  0.53565268  0.66330278  1
  S  S21  1  0.92362644  0.03565268  0.33669722  1
  S  S22  1  0.91681136  0.53531635  0.68357997  1
  S  S23  1  0.58318864  0.03531635  0.31642003  1
  S  S24  1  0.73823158  0.03559477  0.65767034  1
  S  S25  1  0.76176842  0.53559477  0.34232966  1
  S  S26  1  0.66418761  0.03559446  0.99068134  1
  S  S27  1  0.83581239  0.53559446  0.00931866  1
