# generated using pymatgen
data_ZrTiAu
_symmetry_space_group_name_H-M   'P 1'
_cell_length_a   5.59727400
_cell_length_b   9.40610000
_cell_length_c   8.76411200
_cell_angle_alpha   90.00000000
_cell_angle_beta   90.00000000
_cell_angle_gamma   90.00000000
_symmetry_Int_Tables_number   1
_chemical_formula_structural   ZrTiAu
_chemical_formula_sum   'Zr8 Ti8 Au8'
_cell_volume   461.41751690
_cell_formula_units_Z   8
loop_
 _symmetry_equiv_pos_site_id
 _symmetry_equiv_pos_as_xyz
  1  'x, y, z'
loop_
 _atom_site_type_symbol
 _atom_site_label
 _atom_site_symmetry_multiplicity
 _atom_site_fract_x
 _atom_site_fract_y
 _atom_site_fract_z
 _atom_site_occupancy
  Zr  Zr0  1  0.50000000  0.17702600  0.68769600  1
  Zr  Zr1  1  0.50000000  0.83746400  0.81696400  1
  Zr  Zr2  1  0.50000000  0.83746400  0.18303600  1
  Zr  Zr3  1  0.50000000  0.17702600  0.31230400  1
  Zr  Zr4  1  0.00000000  0.67702600  0.68769600  1
  Zr  Zr5  1  0.00000000  0.33746400  0.81696400  1
  Zr  Zr6  1  0.00000000  0.33746400  0.18303600  1
  Zr  Zr7  1  0.00000000  0.67702600  0.31230400  1
  Ti  Ti8  1  0.50000000  0.65908200  0.50000000  1
  Ti  Ti9  1  0.25976350  0.08671350  0.00000000  1
  Ti  Ti10  1  0.74023650  0.08671350  0.00000000  1
  Ti  Ti11  1  0.50000000  0.31969500  0.00000000  1
  Ti  Ti12  1  0.00000000  0.15908200  0.50000000  1
  Ti  Ti13  1  0.75976350  0.58671350  0.00000000  1
  Ti  Ti14  1  0.24023650  0.58671350  0.00000000  1
  Ti  Ti15  1  0.00000000  0.81969500  0.00000000  1
  Au  Au16  1  0.50000000  0.50616700  0.75699800  1
  Au  Au17  1  0.50000000  0.50616700  0.24300200  1
  Au  Au18  1  0.74246150  0.90325250  0.50000000  1
  Au  Au19  1  0.25753850  0.90325250  0.50000000  1
  Au  Au20  1  0.00000000  0.00616700  0.75699800  1
  Au  Au21  1  0.00000000  0.00616700  0.24300200  1
  Au  Au22  1  0.24246150  0.40325250  0.50000000  1
  Au  Au23  1  0.75753850  0.40325250  0.50000000  1
