# generated using pymatgen
data_Mn3Sn2Pd5
_symmetry_space_group_name_H-M   'P 1'
_cell_length_a   4.52709778
_cell_length_b   4.52709778
_cell_length_c   55.54973538
_cell_angle_alpha   90.00000000
_cell_angle_beta   90.00000000
_cell_angle_gamma   120.00000000
_symmetry_Int_Tables_number   1
_chemical_formula_structural   Mn3Sn2Pd5
_chemical_formula_sum   'Mn18 Sn12 Pd30'
_cell_volume   985.94428884
_cell_formula_units_Z   6
loop_
 _symmetry_equiv_pos_site_id
 _symmetry_equiv_pos_as_xyz
  1  'x, y, z'
loop_
 _atom_site_type_symbol
 _atom_site_label
 _atom_site_symmetry_multiplicity
 _atom_site_fract_x
 _atom_site_fract_y
 _atom_site_fract_z
 _atom_site_occupancy
  Mn  Mn0  1  0.00000000  0.00000000  0.09997100  1
  Mn  Mn1  1  0.66666667  0.33333333  0.23336233  1
  Mn  Mn2  1  0.33333333  0.66666667  0.16666667  1
  Mn  Mn3  1  0.66666667  0.33333333  0.03266333  1
  Mn  Mn4  1  0.00000000  0.00000000  0.30067000  1
  Mn  Mn5  1  0.00000000  0.00000000  0.00000000  1
  Mn  Mn6  1  0.66666667  0.33333333  0.43330433  1
  Mn  Mn7  1  0.33333333  0.66666667  0.56669567  1
  Mn  Mn8  1  1.00000000  1.00000000  0.50000000  1
  Mn  Mn9  1  0.33333333  0.66666667  0.36599667  1
  Mn  Mn10  1  0.66666667  0.33333333  0.63400333  1
  Mn  Mn11  1  0.66666667  0.33333333  0.33333333  1
  Mn  Mn12  1  0.33333333  0.66666667  0.76663767  1
  Mn  Mn13  1  0.00000000  0.00000000  0.90002900  1
  Mn  Mn14  1  0.66666667  0.33333333  0.83333333  1
  Mn  Mn15  1  0.00000000  0.00000000  0.69933000  1
  Mn  Mn16  1  0.33333333  0.66666667  0.96733667  1
  Mn  Mn17  1  0.33333333  0.66666667  0.66666667  1
  Sn  Sn18  1  0.33333333  0.66666667  0.26681467  1
  Sn  Sn19  1  0.00000000  0.00000000  0.19994800  1
  Sn  Sn20  1  0.66666667  0.33333333  0.13338533  1
  Sn  Sn21  1  0.33333333  0.66666667  0.06651867  1
  Sn  Sn22  1  0.00000000  0.00000000  0.60014800  1
  Sn  Sn23  1  0.66666667  0.33333333  0.53328133  1
  Sn  Sn24  1  0.33333333  0.66666667  0.46671867  1
  Sn  Sn25  1  0.00000000  0.00000000  0.39985200  1
  Sn  Sn26  1  0.66666667  0.33333333  0.93348133  1
  Sn  Sn27  1  0.33333333  0.66666667  0.86661467  1
  Sn  Sn28  1  0.00000000  0.00000000  0.80005200  1
  Sn  Sn29  1  0.66666667  0.33333333  0.73318533  1
  Pd  Pd30  1  0.66666667  0.33333333  0.08330233  1
  Pd  Pd31  1  0.33333333  0.66666667  0.21662967  1
  Pd  Pd32  1  0.00000000  0.00000000  0.15002900  1
  Pd  Pd33  1  0.33333333  0.66666667  0.01607467  1
  Pd  Pd34  1  0.66666667  0.33333333  0.28387433  1
  Pd  Pd35  1  0.00000000  0.00000000  0.04945900  1
  Pd  Pd36  1  0.66666667  0.33333333  0.18330433  1
  Pd  Pd37  1  0.33333333  0.66666667  0.11670367  1
  Pd  Pd38  1  0.33333333  0.66666667  0.31725867  1
  Pd  Pd39  1  0.00000000  0.00000000  0.25003100  1
  Pd  Pd40  1  0.33333333  0.66666667  0.41663567  1
  Pd  Pd41  1  0.00000000  0.00000000  0.54996300  1
  Pd  Pd42  1  0.66666667  0.33333333  0.48336233  1
  Pd  Pd43  1  0.00000000  0.00000000  0.34940800  1
  Pd  Pd44  1  0.33333333  0.66666667  0.61720767  1
  Pd  Pd45  1  0.66666667  0.33333333  0.38279233  1
  Pd  Pd46  1  0.33333333  0.66666667  0.51663767  1
  Pd  Pd47  1  0.00000000  0.00000000  0.45003700  1
  Pd  Pd48  1  0.00000000  0.00000000  0.65059200  1
  Pd  Pd49  1  0.66666667  0.33333333  0.58336433  1
  Pd  Pd50  1  0.00000000  0.00000000  0.74996900  1
  Pd  Pd51  1  0.66666667  0.33333333  0.88329633  1
  Pd  Pd52  1  0.33333333  0.66666667  0.81669567  1
  Pd  Pd53  1  0.66666667  0.33333333  0.68274133  1
  Pd  Pd54  1  0.00000000  0.00000000  0.95054100  1
  Pd  Pd55  1  0.33333333  0.66666667  0.71612567  1
  Pd  Pd56  1  0.00000000  0.00000000  0.84997100  1
  Pd  Pd57  1  0.66666667  0.33333333  0.78337033  1
  Pd  Pd58  1  0.66666667  0.33333333  0.98392533  1
  Pd  Pd59  1  0.33333333  0.66666667  0.91669767  1
