# generated using pymatgen
data_Rb3Bi2
_symmetry_space_group_name_H-M   'P 1'
_cell_length_a   9.80048805
_cell_length_b   10.16537857
_cell_length_c   9.85098955
_cell_angle_alpha   90.00000000
_cell_angle_beta   105.07500902
_cell_angle_gamma   90.00000000
_symmetry_Int_Tables_number   1
_chemical_formula_structural   Rb3Bi2
_chemical_formula_sum   'Rb12 Bi8'
_cell_volume   947.63731366
_cell_formula_units_Z   4
loop_
 _symmetry_equiv_pos_site_id
 _symmetry_equiv_pos_as_xyz
  1  'x, y, z'
loop_
 _atom_site_type_symbol
 _atom_site_label
 _atom_site_symmetry_multiplicity
 _atom_site_fract_x
 _atom_site_fract_y
 _atom_site_fract_z
 _atom_site_occupancy
  Rb  Rb0  1  0.28910351  0.05151055  0.51565407  1
  Rb  Rb1  1  0.71089649  0.94848945  0.48434593  1
  Rb  Rb2  1  0.71089649  0.05151055  0.98434593  1
  Rb  Rb3  1  0.28910351  0.94848945  0.01565407  1
  Rb  Rb4  1  0.50000000  0.65782154  0.75000000  1
  Rb  Rb5  1  0.50000000  0.34217846  0.25000000  1
  Rb  Rb6  1  0.78910351  0.55151055  0.51565407  1
  Rb  Rb7  1  0.21089649  0.44848945  0.48434593  1
  Rb  Rb8  1  0.21089649  0.55151055  0.98434593  1
  Rb  Rb9  1  0.78910351  0.44848945  0.01565407  1
  Rb  Rb10  1  0.00000000  0.15782154  0.75000000  1
  Rb  Rb11  1  0.00000000  0.84217846  0.25000000  1
  Bi  Bi12  1  0.40168257  0.28332852  0.84285847  1
  Bi  Bi13  1  0.59831743  0.71667148  0.15714153  1
  Bi  Bi14  1  0.59831743  0.28332852  0.65714153  1
  Bi  Bi15  1  0.40168257  0.71667148  0.34285847  1
  Bi  Bi16  1  0.90168257  0.78332852  0.84285847  1
  Bi  Bi17  1  0.09831743  0.21667148  0.15714153  1
  Bi  Bi18  1  0.09831743  0.78332852  0.65714153  1
  Bi  Bi19  1  0.90168257  0.21667148  0.34285847  1
