# generated using pymatgen
data_HfCu3
_symmetry_space_group_name_H-M   'P 1'
_cell_length_a   4.00117600
_cell_length_b   4.00117600
_cell_length_c   7.10387800
_cell_angle_alpha   90.00000000
_cell_angle_beta   90.00000000
_cell_angle_gamma   90.00000000
_symmetry_Int_Tables_number   1
_chemical_formula_structural   HfCu3
_chemical_formula_sum   'Hf2 Cu6'
_cell_volume   113.72889111
_cell_formula_units_Z   2
loop_
 _symmetry_equiv_pos_site_id
 _symmetry_equiv_pos_as_xyz
  1  'x, y, z'
loop_
 _atom_site_type_symbol
 _atom_site_label
 _atom_site_symmetry_multiplicity
 _atom_site_fract_x
 _atom_site_fract_y
 _atom_site_fract_z
 _atom_site_occupancy
  Hf  Hf0  1  0.00000000  0.00000000  0.00000000  1
  Hf  Hf1  1  0.50000000  0.50000000  0.50000000  1
  Cu  Cu2  1  0.00000000  0.50000000  0.25000000  1
  Cu  Cu3  1  0.50000000  0.00000000  0.25000000  1
  Cu  Cu4  1  0.50000000  0.50000000  0.00000000  1
  Cu  Cu5  1  0.50000000  0.00000000  0.75000000  1
  Cu  Cu6  1  0.00000000  0.50000000  0.75000000  1
  Cu  Cu7  1  0.00000000  0.00000000  0.50000000  1
