# generated using pymatgen
data_ZnCu3
_symmetry_space_group_name_H-M   'P 1'
_cell_length_a   2.56687597
_cell_length_b   2.56687597
_cell_length_c   25.13292077
_cell_angle_alpha   90.00000000
_cell_angle_beta   90.00000000
_cell_angle_gamma   120.00000000
_symmetry_Int_Tables_number   1
_chemical_formula_structural   ZnCu3
_chemical_formula_sum   'Zn3 Cu9'
_cell_volume   143.41129626
_cell_formula_units_Z   3
loop_
 _symmetry_equiv_pos_site_id
 _symmetry_equiv_pos_as_xyz
  1  'x, y, z'
loop_
 _atom_site_type_symbol
 _atom_site_label
 _atom_site_symmetry_multiplicity
 _atom_site_fract_x
 _atom_site_fract_y
 _atom_site_fract_z
 _atom_site_occupancy
  Zn  Zn0  1  0.00000000  0.00000000  0.00000000  1
  Zn  Zn1  1  0.66666667  0.33333333  0.33333333  1
  Zn  Zn2  1  0.33333333  0.66666667  0.66666667  1
  Cu  Cu3  1  0.00000000  0.00000000  0.24849652  1
  Cu  Cu4  1  0.33333333  0.66666667  0.16666667  1
  Cu  Cu5  1  0.66666667  0.33333333  0.08483681  1
  Cu  Cu6  1  0.66666667  0.33333333  0.58182985  1
  Cu  Cu7  1  1.00000000  1.00000000  0.50000000  1
  Cu  Cu8  1  0.33333333  0.66666667  0.41817015  1
  Cu  Cu9  1  0.33333333  0.66666667  0.91516319  1
  Cu  Cu10  1  0.66666667  0.33333333  0.83333333  1
  Cu  Cu11  1  0.00000000  0.00000000  0.75150348  1
