# generated using pymatgen
data_Na(CrS2)2
_symmetry_space_group_name_H-M   'P 1'
_cell_length_a   14.38237800
_cell_length_b   3.37959600
_cell_length_c   5.63204082
_cell_angle_alpha   90.00000000
_cell_angle_beta   108.08995750
_cell_angle_gamma   90.00000000
_symmetry_Int_Tables_number   1
_chemical_formula_structural   Na(CrS2)2
_chemical_formula_sum   'Na2 Cr4 S8'
_cell_volume   260.22286949
_cell_formula_units_Z   2
loop_
 _symmetry_equiv_pos_site_id
 _symmetry_equiv_pos_as_xyz
  1  'x, y, z'
loop_
 _atom_site_type_symbol
 _atom_site_label
 _atom_site_symmetry_multiplicity
 _atom_site_fract_x
 _atom_site_fract_y
 _atom_site_fract_z
 _atom_site_occupancy
  Na  Na0  1  0.00000000  0.50000000  0.50000000  1
  Na  Na1  1  0.50000000  0.00000000  0.50000000  1
  Cr  Cr2  1  0.25311300  0.50000000  0.79652700  1
  Cr  Cr3  1  0.24688700  0.00000000  0.20347300  1
  Cr  Cr4  1  0.75311300  0.00000000  0.79652700  1
  Cr  Cr5  1  0.74688700  0.50000000  0.20347300  1
  S  S6  1  0.35922900  0.00000000  0.99940300  1
  S  S7  1  0.14077100  0.50000000  0.00059700  1
  S  S8  1  0.33688700  0.50000000  0.48416300  1
  S  S9  1  0.16311300  0.00000000  0.51583700  1
  S  S10  1  0.85922900  0.50000000  0.99940300  1
  S  S11  1  0.64077100  0.00000000  0.00059700  1
  S  S12  1  0.83688700  0.00000000  0.48416300  1
  S  S13  1  0.66311300  0.50000000  0.51583700  1
