# generated using pymatgen
data_Cs2Pt3Se4
_symmetry_space_group_name_H-M   'P 1'
_cell_length_a   6.69060660
_cell_length_b   11.43454220
_cell_length_c   14.12919520
_cell_angle_alpha   90.00000000
_cell_angle_beta   90.00000000
_cell_angle_gamma   90.00000000
_symmetry_Int_Tables_number   1
_chemical_formula_structural   Cs2Pt3Se4
_chemical_formula_sum   'Cs8 Pt12 Se16'
_cell_volume   1080.94028171
_cell_formula_units_Z   4
loop_
 _symmetry_equiv_pos_site_id
 _symmetry_equiv_pos_as_xyz
  1  'x, y, z'
loop_
 _atom_site_type_symbol
 _atom_site_label
 _atom_site_symmetry_multiplicity
 _atom_site_fract_x
 _atom_site_fract_y
 _atom_site_fract_z
 _atom_site_occupancy
  Cs  Cs0  1  0.00000000  0.00000000  0.64626359  1
  Cs  Cs1  1  0.50000000  0.00000000  0.85373641  1
  Cs  Cs2  1  0.00000000  0.50000000  0.14626359  1
  Cs  Cs3  1  0.50000000  0.50000000  0.35373641  1
  Cs  Cs4  1  0.50000000  0.00000000  0.14626359  1
  Cs  Cs5  1  0.00000000  0.00000000  0.35373641  1
  Cs  Cs6  1  0.50000000  0.50000000  0.64626359  1
  Cs  Cs7  1  0.00000000  0.50000000  0.85373641  1
  Pt  Pt8  1  0.25000000  0.75000000  0.00000000  1
  Pt  Pt9  1  0.00000000  0.00000000  0.00000000  1
  Pt  Pt10  1  0.25000000  0.25000000  0.00000000  1
  Pt  Pt11  1  0.25000000  0.25000000  0.50000000  1
  Pt  Pt12  1  0.00000000  0.50000000  0.50000000  1
  Pt  Pt13  1  0.25000000  0.75000000  0.50000000  1
  Pt  Pt14  1  0.75000000  0.75000000  0.50000000  1
  Pt  Pt15  1  0.50000000  0.00000000  0.50000000  1
  Pt  Pt16  1  0.75000000  0.25000000  0.50000000  1
  Pt  Pt17  1  0.75000000  0.25000000  0.00000000  1
  Pt  Pt18  1  0.50000000  0.50000000  0.00000000  1
  Pt  Pt19  1  0.75000000  0.75000000  0.00000000  1
  Se  Se20  1  0.50000000  0.66764914  0.88900807  1
  Se  Se21  1  0.50000000  0.33235086  0.88900807  1
  Se  Se22  1  0.00000000  0.33235086  0.61099193  1
  Se  Se23  1  0.00000000  0.66764914  0.61099193  1
  Se  Se24  1  0.50000000  0.16764914  0.38900807  1
  Se  Se25  1  0.50000000  0.83235086  0.38900807  1
  Se  Se26  1  0.00000000  0.83235086  0.11099193  1
  Se  Se27  1  0.00000000  0.16764914  0.11099193  1
  Se  Se28  1  0.00000000  0.66764914  0.38900807  1
  Se  Se29  1  0.00000000  0.33235086  0.38900807  1
  Se  Se30  1  0.50000000  0.33235086  0.11099193  1
  Se  Se31  1  0.50000000  0.66764914  0.11099193  1
  Se  Se32  1  0.00000000  0.16764914  0.88900807  1
  Se  Se33  1  0.00000000  0.83235086  0.88900807  1
  Se  Se34  1  0.50000000  0.83235086  0.61099193  1
  Se  Se35  1  0.50000000  0.16764914  0.61099193  1
