# generated using pymatgen
data_Sr3CrN3
_symmetry_space_group_name_H-M   'P 1'
_cell_length_a   7.78656945
_cell_length_b   7.78656945
_cell_length_c   5.22955166
_cell_angle_alpha   90.00000000
_cell_angle_beta   90.00000000
_cell_angle_gamma   120.00000000
_symmetry_Int_Tables_number   1
_chemical_formula_structural   Sr3CrN3
_chemical_formula_sum   'Sr6 Cr2 N6'
_cell_volume   274.59170439
_cell_formula_units_Z   2
loop_
 _symmetry_equiv_pos_site_id
 _symmetry_equiv_pos_as_xyz
  1  'x, y, z'
loop_
 _atom_site_type_symbol
 _atom_site_label
 _atom_site_symmetry_multiplicity
 _atom_site_fract_x
 _atom_site_fract_y
 _atom_site_fract_z
 _atom_site_occupancy
  Sr  Sr0  1  0.64292954  0.72655548  0.75000000  1
  Sr  Sr1  1  0.91637406  0.64292954  0.25000000  1
  Sr  Sr2  1  0.72655548  0.08362594  0.25000000  1
  Sr  Sr3  1  0.27344452  0.91637406  0.75000000  1
  Sr  Sr4  1  0.08362594  0.35707046  0.75000000  1
  Sr  Sr5  1  0.35707046  0.27344452  0.25000000  1
  Cr  Cr6  1  0.66666667  0.33333333  0.75000000  1
  Cr  Cr7  1  0.33333333  0.66666667  0.25000000  1
  N  N8  1  0.56256564  0.68424567  0.25000000  1
  N  N9  1  0.87831997  0.56256564  0.75000000  1
  N  N10  1  0.68424567  0.12168003  0.75000000  1
  N  N11  1  0.31575433  0.87831997  0.25000000  1
  N  N12  1  0.12168003  0.43743436  0.25000000  1
  N  N13  1  0.43743436  0.31575433  0.75000000  1
