# generated using pymatgen
data_ZrZn2Ge
_symmetry_space_group_name_H-M   'P 1'
_cell_length_a   4.00289200
_cell_length_b   4.00289200
_cell_length_c   17.14594200
_cell_angle_alpha   90.00000000
_cell_angle_beta   90.00000000
_cell_angle_gamma   90.00000000
_symmetry_Int_Tables_number   1
_chemical_formula_structural   ZrZn2Ge
_chemical_formula_sum   'Zr4 Zn8 Ge4'
_cell_volume   274.73190392
_cell_formula_units_Z   4
loop_
 _symmetry_equiv_pos_site_id
 _symmetry_equiv_pos_as_xyz
  1  'x, y, z'
loop_
 _atom_site_type_symbol
 _atom_site_label
 _atom_site_symmetry_multiplicity
 _atom_site_fract_x
 _atom_site_fract_y
 _atom_site_fract_z
 _atom_site_occupancy
  Zr  Zr0  1  0.00000000  0.00000000  0.12610400  1
  Zr  Zr1  1  0.50000000  0.50000000  0.37389600  1
  Zr  Zr2  1  0.50000000  0.50000000  0.62610400  1
  Zr  Zr3  1  0.00000000  0.00000000  0.87389600  1
  Zn  Zn4  1  0.00000000  0.00000000  0.39473500  1
  Zn  Zn5  1  0.50000000  0.50000000  0.10526500  1
  Zn  Zn6  1  0.00000000  0.50000000  0.00000000  1
  Zn  Zn7  1  0.50000000  0.00000000  0.00000000  1
  Zn  Zn8  1  0.50000000  0.50000000  0.89473500  1
  Zn  Zn9  1  0.00000000  0.00000000  0.60526500  1
  Zn  Zn10  1  0.50000000  0.00000000  0.50000000  1
  Zn  Zn11  1  0.00000000  0.50000000  0.50000000  1
  Ge  Ge12  1  0.00000000  0.50000000  0.25000000  1
  Ge  Ge13  1  0.50000000  0.00000000  0.25000000  1
  Ge  Ge14  1  0.50000000  0.00000000  0.75000000  1
  Ge  Ge15  1  0.00000000  0.50000000  0.75000000  1
