# generated using pymatgen
data_Zr21S8
_symmetry_space_group_name_H-M   'P 1'
_cell_length_a   17.97594341
_cell_length_b   17.97594341
_cell_length_c   3.53729238
_cell_angle_alpha   90.00000000
_cell_angle_beta   90.00000000
_cell_angle_gamma   90.00000000
_symmetry_Int_Tables_number   1
_chemical_formula_structural   Zr21S8
_chemical_formula_sum   'Zr42 S16'
_cell_volume   1143.02135175
_cell_formula_units_Z   2
loop_
 _symmetry_equiv_pos_site_id
 _symmetry_equiv_pos_as_xyz
  1  'x, y, z'
loop_
 _atom_site_type_symbol
 _atom_site_label
 _atom_site_symmetry_multiplicity
 _atom_site_fract_x
 _atom_site_fract_y
 _atom_site_fract_z
 _atom_site_occupancy
  Zr  Zr0  1  0.50000000  0.50000000  0.50000000  1
  Zr  Zr1  1  0.95206079  0.41647783  0.50000000  1
  Zr  Zr2  1  0.04793921  0.58352217  0.50000000  1
  Zr  Zr3  1  0.91647783  0.54793921  0.00000000  1
  Zr  Zr4  1  0.08352217  0.45206079  0.00000000  1
  Zr  Zr5  1  0.03371320  0.72634833  0.00000000  1
  Zr  Zr6  1  0.96628680  0.27365167  0.00000000  1
  Zr  Zr7  1  0.22634833  0.46628680  0.50000000  1
  Zr  Zr8  1  0.77365167  0.53371320  0.50000000  1
  Zr  Zr9  1  0.19147859  0.60398290  0.00000000  1
  Zr  Zr10  1  0.80852141  0.39601710  0.00000000  1
  Zr  Zr11  1  0.10398290  0.30852141  0.50000000  1
  Zr  Zr12  1  0.89601710  0.69147859  0.50000000  1
  Zr  Zr13  1  0.69975065  0.30528643  0.50000000  1
  Zr  Zr14  1  0.30024935  0.69471357  0.50000000  1
  Zr  Zr15  1  0.80528643  0.80024935  0.00000000  1
  Zr  Zr16  1  0.19471357  0.19975065  0.00000000  1
  Zr  Zr17  1  0.36453274  0.54531993  0.00000000  1
  Zr  Zr18  1  0.63546726  0.45468007  0.00000000  1
  Zr  Zr19  1  0.04531993  0.13546726  0.50000000  1
  Zr  Zr20  1  0.95468007  0.86453274  0.50000000  1
  Zr  Zr21  1  0.00000000  0.00000000  0.00000000  1
  Zr  Zr22  1  0.45206079  0.91647783  0.00000000  1
  Zr  Zr23  1  0.54793921  0.08352217  0.00000000  1
  Zr  Zr24  1  0.41647783  0.04793921  0.50000000  1
  Zr  Zr25  1  0.58352217  0.95206079  0.50000000  1
  Zr  Zr26  1  0.53371320  0.22634833  0.50000000  1
  Zr  Zr27  1  0.46628680  0.77365167  0.50000000  1
  Zr  Zr28  1  0.72634833  0.96628680  0.00000000  1
  Zr  Zr29  1  0.27365167  0.03371320  0.00000000  1
  Zr  Zr30  1  0.69147859  0.10398290  0.50000000  1
  Zr  Zr31  1  0.30852141  0.89601710  0.50000000  1
  Zr  Zr32  1  0.60398290  0.80852141  0.00000000  1
  Zr  Zr33  1  0.39601710  0.19147859  0.00000000  1
  Zr  Zr34  1  0.19975065  0.80528643  0.00000000  1
  Zr  Zr35  1  0.80024935  0.19471357  0.00000000  1
  Zr  Zr36  1  0.30528643  0.30024935  0.50000000  1
  Zr  Zr37  1  0.69471357  0.69975065  0.50000000  1
  Zr  Zr38  1  0.86453274  0.04531993  0.50000000  1
  Zr  Zr39  1  0.13546726  0.95468007  0.50000000  1
  Zr  Zr40  1  0.54531993  0.63546726  0.00000000  1
  Zr  Zr41  1  0.45468007  0.36453274  0.00000000  1
  S  S42  1  0.06721898  0.86721408  0.00000000  1
  S  S43  1  0.93278102  0.13278592  0.00000000  1
  S  S44  1  0.36721408  0.43278102  0.50000000  1
  S  S45  1  0.63278592  0.56721898  0.50000000  1
  S  S46  1  0.85385222  0.29522528  0.50000000  1
  S  S47  1  0.14614778  0.70477472  0.50000000  1
  S  S48  1  0.79522528  0.64614778  0.00000000  1
  S  S49  1  0.20477472  0.35385222  0.00000000  1
  S  S50  1  0.56721898  0.36721408  0.50000000  1
  S  S51  1  0.43278102  0.63278592  0.50000000  1
  S  S52  1  0.86721408  0.93278102  0.00000000  1
  S  S53  1  0.13278592  0.06721898  0.00000000  1
  S  S54  1  0.35385222  0.79522528  0.00000000  1
  S  S55  1  0.64614778  0.20477472  0.00000000  1
  S  S56  1  0.29522528  0.14614778  0.50000000  1
  S  S57  1  0.70477472  0.85385222  0.50000000  1
