# generated using pymatgen
data_TiV4Si3
_symmetry_space_group_name_H-M   'P 1'
_cell_length_a   9.54000600
_cell_length_b   9.54000600
_cell_length_c   4.71618700
_cell_angle_alpha   90.00000000
_cell_angle_beta   90.00000000
_cell_angle_gamma   90.00000000
_symmetry_Int_Tables_number   1
_chemical_formula_structural   TiV4Si3
_chemical_formula_sum   'Ti4 V16 Si12'
_cell_volume   429.22826468
_cell_formula_units_Z   4
loop_
 _symmetry_equiv_pos_site_id
 _symmetry_equiv_pos_as_xyz
  1  'x, y, z'
loop_
 _atom_site_type_symbol
 _atom_site_label
 _atom_site_symmetry_multiplicity
 _atom_site_fract_x
 _atom_site_fract_y
 _atom_site_fract_z
 _atom_site_occupancy
  Ti  Ti0  1  0.50000000  0.00000000  0.25000000  1
  Ti  Ti1  1  0.50000000  0.00000000  0.75000000  1
  Ti  Ti2  1  0.00000000  0.50000000  0.75000000  1
  Ti  Ti3  1  0.00000000  0.50000000  0.25000000  1
  V  V4  1  0.57198700  0.72010900  0.50000000  1
  V  V5  1  0.42801300  0.27989100  0.50000000  1
  V  V6  1  0.57198700  0.27989100  0.00000000  1
  V  V7  1  0.42801300  0.72010900  0.00000000  1
  V  V8  1  0.77989100  0.07198700  0.00000000  1
  V  V9  1  0.22010900  0.92801300  0.00000000  1
  V  V10  1  0.22010900  0.07198700  0.50000000  1
  V  V11  1  0.77989100  0.92801300  0.50000000  1
  V  V12  1  0.07198700  0.22010900  0.00000000  1
  V  V13  1  0.92801300  0.77989100  0.00000000  1
  V  V14  1  0.07198700  0.77989100  0.50000000  1
  V  V15  1  0.92801300  0.22010900  0.50000000  1
  V  V16  1  0.27989100  0.57198700  0.50000000  1
  V  V17  1  0.72010900  0.42801300  0.50000000  1
  V  V18  1  0.72010900  0.57198700  0.00000000  1
  V  V19  1  0.27989100  0.42801300  0.00000000  1
  Si  Si20  1  0.67028050  0.17028050  0.50000000  1
  Si  Si21  1  0.32971950  0.82971950  0.50000000  1
  Si  Si22  1  0.67028050  0.82971950  0.00000000  1
  Si  Si23  1  0.32971950  0.17028050  0.00000000  1
  Si  Si24  1  0.00000000  0.00000000  0.75000000  1
  Si  Si25  1  0.00000000  0.00000000  0.25000000  1
  Si  Si26  1  0.17028050  0.67028050  0.00000000  1
  Si  Si27  1  0.82971950  0.32971950  0.00000000  1
  Si  Si28  1  0.17028050  0.32971950  0.50000000  1
  Si  Si29  1  0.82971950  0.67028050  0.50000000  1
  Si  Si30  1  0.50000000  0.50000000  0.25000000  1
  Si  Si31  1  0.50000000  0.50000000  0.75000000  1
