# generated using pymatgen
data_Zr5CrSb2
_symmetry_space_group_name_H-M   'P 1'
_cell_length_a   11.15784600
_cell_length_b   11.15784600
_cell_length_c   5.57309200
_cell_angle_alpha   90.00000000
_cell_angle_beta   90.00000000
_cell_angle_gamma   90.00000000
_symmetry_Int_Tables_number   1
_chemical_formula_structural   Zr5CrSb2
_chemical_formula_sum   'Zr20 Cr4 Sb8'
_cell_volume   693.83617375
_cell_formula_units_Z   4
loop_
 _symmetry_equiv_pos_site_id
 _symmetry_equiv_pos_as_xyz
  1  'x, y, z'
loop_
 _atom_site_type_symbol
 _atom_site_label
 _atom_site_symmetry_multiplicity
 _atom_site_fract_x
 _atom_site_fract_y
 _atom_site_fract_z
 _atom_site_occupancy
  Zr  Zr0  1  0.20264650  0.07251850  0.50000000  1
  Zr  Zr1  1  0.79735350  0.92748150  0.50000000  1
  Zr  Zr2  1  0.57251850  0.29735350  0.00000000  1
  Zr  Zr3  1  0.20264650  0.92748150  0.00000000  1
  Zr  Zr4  1  0.42748150  0.70264650  0.00000000  1
  Zr  Zr5  1  0.79735350  0.07251850  0.00000000  1
  Zr  Zr6  1  0.57251850  0.70264650  0.50000000  1
  Zr  Zr7  1  0.42748150  0.29735350  0.50000000  1
  Zr  Zr8  1  0.50000000  0.00000000  0.75000000  1
  Zr  Zr9  1  0.50000000  0.00000000  0.25000000  1
  Zr  Zr10  1  0.70264650  0.57251850  0.00000000  1
  Zr  Zr11  1  0.29735350  0.42748150  0.00000000  1
  Zr  Zr12  1  0.07251850  0.79735350  0.50000000  1
  Zr  Zr13  1  0.70264650  0.42748150  0.50000000  1
  Zr  Zr14  1  0.92748150  0.20264650  0.50000000  1
  Zr  Zr15  1  0.29735350  0.57251850  0.50000000  1
  Zr  Zr16  1  0.07251850  0.20264650  0.00000000  1
  Zr  Zr17  1  0.92748150  0.79735350  0.00000000  1
  Zr  Zr18  1  0.00000000  0.50000000  0.25000000  1
  Zr  Zr19  1  0.00000000  0.50000000  0.75000000  1
  Cr  Cr20  1  0.00000000  0.00000000  0.75000000  1
  Cr  Cr21  1  0.00000000  0.00000000  0.25000000  1
  Cr  Cr22  1  0.50000000  0.50000000  0.25000000  1
  Cr  Cr23  1  0.50000000  0.50000000  0.75000000  1
  Sb  Sb24  1  0.66323850  0.16323850  0.50000000  1
  Sb  Sb25  1  0.33676150  0.83676150  0.50000000  1
  Sb  Sb26  1  0.66323850  0.83676150  0.00000000  1
  Sb  Sb27  1  0.33676150  0.16323850  0.00000000  1
  Sb  Sb28  1  0.16323850  0.66323850  0.00000000  1
  Sb  Sb29  1  0.83676150  0.33676150  0.00000000  1
  Sb  Sb30  1  0.16323850  0.33676150  0.50000000  1
  Sb  Sb31  1  0.83676150  0.66323850  0.50000000  1
