# generated using pymatgen
data_Fe7Ge4
_symmetry_space_group_name_H-M   'P 1'
_cell_length_a   8.08288374
_cell_length_b   8.08288374
_cell_length_c   4.96371771
_cell_angle_alpha   90.00000000
_cell_angle_beta   90.00000000
_cell_angle_gamma   120.00000000
_symmetry_Int_Tables_number   1
_chemical_formula_structural   Fe7Ge4
_chemical_formula_sum   'Fe14 Ge8'
_cell_volume   280.84737621
_cell_formula_units_Z   2
loop_
 _symmetry_equiv_pos_site_id
 _symmetry_equiv_pos_as_xyz
  1  'x, y, z'
loop_
 _atom_site_type_symbol
 _atom_site_label
 _atom_site_symmetry_multiplicity
 _atom_site_fract_x
 _atom_site_fract_y
 _atom_site_fract_z
 _atom_site_occupancy
  Fe  Fe0  1  0.31770208  0.15885104  0.75000000  1
  Fe  Fe1  1  0.68229792  0.84114896  0.25000000  1
  Fe  Fe2  1  0.84114896  0.15885104  0.75000000  1
  Fe  Fe3  1  0.15885104  0.84114896  0.25000000  1
  Fe  Fe4  1  0.84114896  0.68229792  0.75000000  1
  Fe  Fe5  1  0.15885104  0.31770208  0.25000000  1
  Fe  Fe6  1  0.00000000  0.00000000  0.50000000  1
  Fe  Fe7  1  0.00000000  0.00000000  0.00000000  1
  Fe  Fe8  1  0.00000000  0.50000000  0.50000000  1
  Fe  Fe9  1  0.50000000  0.50000000  0.50000000  1
  Fe  Fe10  1  0.00000000  0.50000000  0.00000000  1
  Fe  Fe11  1  0.50000000  0.00000000  0.50000000  1
  Fe  Fe12  1  0.50000000  0.50000000  0.00000000  1
  Fe  Fe13  1  0.50000000  0.00000000  0.00000000  1
  Ge  Ge14  1  0.62036120  0.81018060  0.75000000  1
  Ge  Ge15  1  0.37963880  0.18981940  0.25000000  1
  Ge  Ge16  1  0.18981940  0.81018060  0.75000000  1
  Ge  Ge17  1  0.81018060  0.18981940  0.25000000  1
  Ge  Ge18  1  0.18981940  0.37963880  0.75000000  1
  Ge  Ge19  1  0.81018060  0.62036120  0.25000000  1
  Ge  Ge20  1  0.66666667  0.33333333  0.75000000  1
  Ge  Ge21  1  0.33333333  0.66666667  0.25000000  1
