# generated using pymatgen
data_Re3As7
_symmetry_space_group_name_H-M   'P 1'
_cell_length_a   8.80022146
_cell_length_b   8.80022146
_cell_length_c   8.80022146
_cell_angle_alpha   90.00000000
_cell_angle_beta   90.00000000
_cell_angle_gamma   90.00000000
_symmetry_Int_Tables_number   1
_chemical_formula_structural   Re3As7
_chemical_formula_sum   'Re12 As28'
_cell_volume   681.52344999
_cell_formula_units_Z   4
loop_
 _symmetry_equiv_pos_site_id
 _symmetry_equiv_pos_as_xyz
  1  'x, y, z'
loop_
 _atom_site_type_symbol
 _atom_site_label
 _atom_site_symmetry_multiplicity
 _atom_site_fract_x
 _atom_site_fract_y
 _atom_site_fract_z
 _atom_site_occupancy
  Re  Re0  1  0.00000000  0.34031257  0.00000000  1
  Re  Re1  1  0.34031257  0.00000000  0.00000000  1
  Re  Re2  1  0.65968743  0.00000000  0.00000000  1
  Re  Re3  1  0.00000000  0.00000000  0.34031257  1
  Re  Re4  1  0.00000000  0.00000000  0.65968743  1
  Re  Re5  1  0.00000000  0.65968743  0.00000000  1
  Re  Re6  1  0.50000000  0.84031257  0.50000000  1
  Re  Re7  1  0.84031257  0.50000000  0.50000000  1
  Re  Re8  1  0.15968743  0.50000000  0.50000000  1
  Re  Re9  1  0.50000000  0.50000000  0.84031257  1
  Re  Re10  1  0.50000000  0.50000000  0.15968743  1
  Re  Re11  1  0.50000000  0.15968743  0.50000000  1
  As  As12  1  0.50000000  0.75000000  0.00000000  1
  As  As13  1  0.25000000  0.00000000  0.50000000  1
  As  As14  1  0.25000000  0.50000000  0.00000000  1
  As  As15  1  0.00000000  0.50000000  0.25000000  1
  As  As16  1  0.50000000  0.00000000  0.25000000  1
  As  As17  1  0.00000000  0.75000000  0.50000000  1
  As  As18  1  0.66593512  0.66593512  0.33406488  1
  As  As19  1  0.16593512  0.83406488  0.83406488  1
  As  As20  1  0.33406488  0.66593512  0.33406488  1
  As  As21  1  0.16593512  0.16593512  0.16593512  1
  As  As22  1  0.16593512  0.83406488  0.16593512  1
  As  As23  1  0.33406488  0.33406488  0.33406488  1
  As  As24  1  0.33406488  0.66593512  0.66593512  1
  As  As25  1  0.83406488  0.83406488  0.16593512  1
  As  As26  1  0.00000000  0.25000000  0.50000000  1
  As  As27  1  0.75000000  0.50000000  0.00000000  1
  As  As28  1  0.75000000  0.00000000  0.50000000  1
  As  As29  1  0.50000000  0.00000000  0.75000000  1
  As  As30  1  0.00000000  0.50000000  0.75000000  1
  As  As31  1  0.50000000  0.25000000  0.00000000  1
  As  As32  1  0.16593512  0.16593512  0.83406488  1
  As  As33  1  0.66593512  0.33406488  0.33406488  1
  As  As34  1  0.83406488  0.16593512  0.83406488  1
  As  As35  1  0.66593512  0.66593512  0.66593512  1
  As  As36  1  0.66593512  0.33406488  0.66593512  1
  As  As37  1  0.83406488  0.83406488  0.83406488  1
  As  As38  1  0.83406488  0.16593512  0.16593512  1
  As  As39  1  0.33406488  0.33406488  0.66593512  1
