# generated using pymatgen
data_CsAgCl3
_symmetry_space_group_name_H-M   'P 1'
_cell_length_a   7.26308175
_cell_length_b   7.26308175
_cell_length_c   10.56628206
_cell_angle_alpha   90.00000000
_cell_angle_beta   90.00000000
_cell_angle_gamma   90.00000000
_symmetry_Int_Tables_number   1
_chemical_formula_structural   CsAgCl3
_chemical_formula_sum   'Cs4 Ag4 Cl12'
_cell_volume   557.39627900
_cell_formula_units_Z   4
loop_
 _symmetry_equiv_pos_site_id
 _symmetry_equiv_pos_as_xyz
  1  'x, y, z'
loop_
 _atom_site_type_symbol
 _atom_site_label
 _atom_site_symmetry_multiplicity
 _atom_site_fract_x
 _atom_site_fract_y
 _atom_site_fract_z
 _atom_site_occupancy
  Cs  Cs0  1  0.50000000  0.00000000  0.25000000  1
  Cs  Cs1  1  0.00000000  0.50000000  0.25000000  1
  Cs  Cs2  1  0.00000000  0.50000000  0.75000000  1
  Cs  Cs3  1  0.50000000  0.00000000  0.75000000  1
  Ag  Ag4  1  0.50000000  0.50000000  0.00000000  1
  Ag  Ag5  1  0.00000000  0.00000000  0.00000000  1
  Ag  Ag6  1  0.00000000  0.00000000  0.50000000  1
  Ag  Ag7  1  0.50000000  0.50000000  0.50000000  1
  Cl  Cl8  1  0.76092797  0.76092797  0.00000000  1
  Cl  Cl9  1  0.23907203  0.76092797  0.00000000  1
  Cl  Cl10  1  0.76092797  0.23907203  0.00000000  1
  Cl  Cl11  1  0.23907203  0.23907203  0.00000000  1
  Cl  Cl12  1  0.00000000  0.00000000  0.27070535  1
  Cl  Cl13  1  0.50000000  0.50000000  0.22929465  1
  Cl  Cl14  1  0.26092797  0.26092797  0.50000000  1
  Cl  Cl15  1  0.73907203  0.26092797  0.50000000  1
  Cl  Cl16  1  0.26092797  0.73907203  0.50000000  1
  Cl  Cl17  1  0.73907203  0.73907203  0.50000000  1
  Cl  Cl18  1  0.50000000  0.50000000  0.77070535  1
  Cl  Cl19  1  0.00000000  0.00000000  0.72929465  1
