# generated using pymatgen
data_Ga2TeS2
_symmetry_space_group_name_H-M   'P 1'
_cell_length_a   7.14449419
_cell_length_b   7.14449419
_cell_length_c   10.19412756
_cell_angle_alpha   90.00000000
_cell_angle_beta   90.00000000
_cell_angle_gamma   90.00000000
_symmetry_Int_Tables_number   1
_chemical_formula_structural   Ga2TeS2
_chemical_formula_sum   'Ga8 Te4 S8'
_cell_volume   520.34698048
_cell_formula_units_Z   4
loop_
 _symmetry_equiv_pos_site_id
 _symmetry_equiv_pos_as_xyz
  1  'x, y, z'
loop_
 _atom_site_type_symbol
 _atom_site_label
 _atom_site_symmetry_multiplicity
 _atom_site_fract_x
 _atom_site_fract_y
 _atom_site_fract_z
 _atom_site_occupancy
  Ga  Ga0  1  0.72199035  0.00000000  0.16064776  1
  Ga  Ga1  1  0.00000000  0.77800965  0.41064776  1
  Ga  Ga2  1  0.27800965  0.00000000  0.16064776  1
  Ga  Ga3  1  0.00000000  0.22199035  0.41064776  1
  Ga  Ga4  1  0.22199035  0.50000000  0.66064776  1
  Ga  Ga5  1  0.50000000  0.27800965  0.91064776  1
  Ga  Ga6  1  0.77800965  0.50000000  0.66064776  1
  Ga  Ga7  1  0.50000000  0.72199035  0.91064776  1
  Te  Te8  1  0.00000000  0.50000000  0.25145073  1
  Te  Te9  1  0.00000000  0.00000000  0.00145073  1
  Te  Te10  1  0.50000000  0.00000000  0.75145073  1
  Te  Te11  1  0.50000000  0.50000000  0.50145073  1
  S  S12  1  0.50000000  0.23933407  0.13442737  1
  S  S13  1  0.76066593  0.00000000  0.38442737  1
  S  S14  1  0.23933407  0.00000000  0.38442737  1
  S  S15  1  0.50000000  0.76066593  0.13442737  1
  S  S16  1  0.00000000  0.73933407  0.63442737  1
  S  S17  1  0.26066593  0.50000000  0.88442737  1
  S  S18  1  0.73933407  0.50000000  0.88442737  1
  S  S19  1  0.00000000  0.26066593  0.63442737  1
