# generated using pymatgen
data_Co3W
_symmetry_space_group_name_H-M   'P 1'
_cell_length_a   5.05516018
_cell_length_b   5.05516018
_cell_length_c   4.11713190
_cell_angle_alpha   90.00000000
_cell_angle_beta   90.00000000
_cell_angle_gamma   120.00000000
_symmetry_Int_Tables_number   1
_chemical_formula_structural   Co3W
_chemical_formula_sum   'Co6 W2'
_cell_volume   91.11612784
_cell_formula_units_Z   2
loop_
 _symmetry_equiv_pos_site_id
 _symmetry_equiv_pos_as_xyz
  1  'x, y, z'
loop_
 _atom_site_type_symbol
 _atom_site_label
 _atom_site_symmetry_multiplicity
 _atom_site_fract_x
 _atom_site_fract_y
 _atom_site_fract_z
 _atom_site_occupancy
  Co  Co0  1  0.83717837  0.67435674  0.25000000  1
  Co  Co1  1  0.16282163  0.83717837  0.75000000  1
  Co  Co2  1  0.67435674  0.83717837  0.75000000  1
  Co  Co3  1  0.32564326  0.16282163  0.25000000  1
  Co  Co4  1  0.83717837  0.16282163  0.25000000  1
  Co  Co5  1  0.16282163  0.32564326  0.75000000  1
  W  W6  1  0.33333333  0.66666667  0.25000000  1
  W  W7  1  0.66666667  0.33333333  0.75000000  1
