# generated using pymatgen
data_RbTe6
_symmetry_space_group_name_H-M   'P 1'
_cell_length_a   11.88032622
_cell_length_b   7.52145884
_cell_length_c   12.62211204
_cell_angle_alpha   90.00000000
_cell_angle_beta   110.19637136
_cell_angle_gamma   90.00000000
_symmetry_Int_Tables_number   1
_chemical_formula_structural   RbTe6
_chemical_formula_sum   'Rb4 Te24'
_cell_volume   1058.53116075
_cell_formula_units_Z   4
loop_
 _symmetry_equiv_pos_site_id
 _symmetry_equiv_pos_as_xyz
  1  'x, y, z'
loop_
 _atom_site_type_symbol
 _atom_site_label
 _atom_site_symmetry_multiplicity
 _atom_site_fract_x
 _atom_site_fract_y
 _atom_site_fract_z
 _atom_site_occupancy
  Rb  Rb0  1  0.50000000  0.13119450  0.25000000  1
  Rb  Rb1  1  0.00000000  0.36880550  0.75000000  1
  Rb  Rb2  1  0.00000000  0.63119450  0.25000000  1
  Rb  Rb3  1  0.50000000  0.86880550  0.75000000  1
  Te  Te4  1  0.71480731  0.51461781  0.35245185  1
  Te  Te5  1  0.78519269  0.01461781  0.14754815  1
  Te  Te6  1  0.81425806  0.95669647  0.40642983  1
  Te  Te7  1  0.18574194  0.95669647  0.09357017  1
  Te  Te8  1  0.68574194  0.54330353  0.59357017  1
  Te  Te9  1  0.31425806  0.54330353  0.90642983  1
  Te  Te10  1  0.91584695  0.29749047  0.43669449  1
  Te  Te11  1  0.58415305  0.79749047  0.06330551  1
  Te  Te12  1  0.58415305  0.20250953  0.56330551  1
  Te  Te13  1  0.91584695  0.70250953  0.93669449  1
  Te  Te14  1  0.71480731  0.48538219  0.85245185  1
  Te  Te15  1  0.78519269  0.98538219  0.64754815  1
  Te  Te16  1  0.21480731  0.01461781  0.35245185  1
  Te  Te17  1  0.28519269  0.51461781  0.14754815  1
  Te  Te18  1  0.31425806  0.45669647  0.40642983  1
  Te  Te19  1  0.68574194  0.45669647  0.09357017  1
  Te  Te20  1  0.18574194  0.04330353  0.59357017  1
  Te  Te21  1  0.81425806  0.04330353  0.90642983  1
  Te  Te22  1  0.41584695  0.79749047  0.43669449  1
  Te  Te23  1  0.08415305  0.29749047  0.06330551  1
  Te  Te24  1  0.08415305  0.70250953  0.56330551  1
  Te  Te25  1  0.41584695  0.20250953  0.93669449  1
  Te  Te26  1  0.21480731  0.98538219  0.85245185  1
  Te  Te27  1  0.28519269  0.48538219  0.64754815  1
