# generated using pymatgen
data_KSn2Cl5
_symmetry_space_group_name_H-M   'P 1'
_cell_length_a   8.03283419
_cell_length_b   8.03283419
_cell_length_c   14.06355034
_cell_angle_alpha   90.00000000
_cell_angle_beta   90.00000000
_cell_angle_gamma   90.00000000
_symmetry_Int_Tables_number   1
_chemical_formula_structural   KSn2Cl5
_chemical_formula_sum   'K4 Sn8 Cl20'
_cell_volume   907.47062762
_cell_formula_units_Z   4
loop_
 _symmetry_equiv_pos_site_id
 _symmetry_equiv_pos_as_xyz
  1  'x, y, z'
loop_
 _atom_site_type_symbol
 _atom_site_label
 _atom_site_symmetry_multiplicity
 _atom_site_fract_x
 _atom_site_fract_y
 _atom_site_fract_z
 _atom_site_occupancy
  K  K0  1  0.00000000  0.00000000  0.25000000  1
  K  K1  1  0.50000000  0.50000000  0.25000000  1
  K  K2  1  0.50000000  0.50000000  0.75000000  1
  K  K3  1  0.00000000  0.00000000  0.75000000  1
  Sn  Sn4  1  0.32420118  0.17579882  0.00000000  1
  Sn  Sn5  1  0.17579882  0.67579882  0.00000000  1
  Sn  Sn6  1  0.67579882  0.82420118  0.00000000  1
  Sn  Sn7  1  0.82420118  0.32420118  0.00000000  1
  Sn  Sn8  1  0.82420118  0.67579882  0.50000000  1
  Sn  Sn9  1  0.67579882  0.17579882  0.50000000  1
  Sn  Sn10  1  0.17579882  0.32420118  0.50000000  1
  Sn  Sn11  1  0.32420118  0.82420118  0.50000000  1
  Cl  Cl12  1  0.82979495  0.32979495  0.36517609  1
  Cl  Cl13  1  0.32979495  0.82979495  0.13482391  1
  Cl  Cl14  1  0.67020505  0.17020505  0.13482391  1
  Cl  Cl15  1  0.82979495  0.67020505  0.13482391  1
  Cl  Cl16  1  0.17020505  0.32979495  0.13482391  1
  Cl  Cl17  1  0.67020505  0.82979495  0.36517609  1
  Cl  Cl18  1  0.00000000  0.00000000  0.00000000  1
  Cl  Cl19  1  0.50000000  0.50000000  0.00000000  1
  Cl  Cl20  1  0.17020505  0.67020505  0.36517609  1
  Cl  Cl21  1  0.32979495  0.17020505  0.36517609  1
  Cl  Cl22  1  0.32979495  0.82979495  0.86517609  1
  Cl  Cl23  1  0.82979495  0.32979495  0.63482391  1
  Cl  Cl24  1  0.17020505  0.67020505  0.63482391  1
  Cl  Cl25  1  0.32979495  0.17020505  0.63482391  1
  Cl  Cl26  1  0.67020505  0.82979495  0.63482391  1
  Cl  Cl27  1  0.17020505  0.32979495  0.86517609  1
  Cl  Cl28  1  0.50000000  0.50000000  0.50000000  1
  Cl  Cl29  1  0.00000000  0.00000000  0.50000000  1
  Cl  Cl30  1  0.67020505  0.17020505  0.86517609  1
  Cl  Cl31  1  0.82979495  0.67020505  0.86517609  1
