# generated using pymatgen
data_V4Cu3S8
_symmetry_space_group_name_H-M   'P 1'
_cell_length_a   6.65676592
_cell_length_b   6.65676592
_cell_length_c   18.71694603
_cell_angle_alpha   90.00000000
_cell_angle_beta   90.00000000
_cell_angle_gamma   120.00000000
_symmetry_Int_Tables_number   1
_chemical_formula_structural   V4Cu3S8
_chemical_formula_sum   'V12 Cu9 S24'
_cell_volume   718.27738175
_cell_formula_units_Z   3
loop_
 _symmetry_equiv_pos_site_id
 _symmetry_equiv_pos_as_xyz
  1  'x, y, z'
loop_
 _atom_site_type_symbol
 _atom_site_label
 _atom_site_symmetry_multiplicity
 _atom_site_fract_x
 _atom_site_fract_y
 _atom_site_fract_z
 _atom_site_occupancy
  V  V0  1  0.66666667  0.33333333  0.33303433  1
  V  V1  1  0.13864400  0.86135600  0.33211900  1
  V  V2  1  0.72271200  0.86135600  0.33211900  1
  V  V3  1  0.13864400  0.27728800  0.33211900  1
  V  V4  1  0.33333333  0.66666667  0.66636767  1
  V  V5  1  0.80531067  0.19468933  0.66545233  1
  V  V6  1  0.38937867  0.19468933  0.66545233  1
  V  V7  1  0.80531067  0.61062133  0.66545233  1
  V  V8  1  0.00000000  0.00000000  0.99970100  1
  V  V9  1  0.47197733  0.52802267  0.99878567  1
  V  V10  1  0.05604533  0.52802267  0.99878567  1
  V  V11  1  0.47197733  0.94395467  0.99878567  1
  Cu  Cu12  1  0.51843700  0.48156300  0.14417300  1
  Cu  Cu13  1  0.51843700  0.03687400  0.14417300  1
  Cu  Cu14  1  0.96312600  0.48156300  0.14417300  1
  Cu  Cu15  1  0.18510367  0.81489633  0.47750633  1
  Cu  Cu16  1  0.18510367  0.37020733  0.47750633  1
  Cu  Cu17  1  0.62979267  0.81489633  0.47750633  1
  Cu  Cu18  1  0.85177033  0.14822967  0.81083967  1
  Cu  Cu19  1  0.85177033  0.70354067  0.81083967  1
  Cu  Cu20  1  0.29645933  0.14822967  0.81083967  1
  S  S21  1  0.00200733  0.50100367  0.26199067  1
  S  S22  1  0.49899633  0.99799267  0.26199067  1
  S  S23  1  0.16458967  0.32917933  0.08083933  1
  S  S24  1  0.67082067  0.83541033  0.08083933  1
  S  S25  1  0.49899633  0.50100367  0.26199067  1
  S  S26  1  0.66666667  0.33333333  0.06013333  1
  S  S27  1  0.00000000  0.00000000  0.24518100  1
  S  S28  1  0.16458967  0.83541033  0.08083933  1
  S  S29  1  0.66867400  0.83433700  0.59532400  1
  S  S30  1  0.16566300  0.33132600  0.59532400  1
  S  S31  1  0.83125633  0.66251267  0.41417267  1
  S  S32  1  0.33748733  0.16874367  0.41417267  1
  S  S33  1  0.16566300  0.83433700  0.59532400  1
  S  S34  1  0.33333333  0.66666667  0.39346667  1
  S  S35  1  0.66666667  0.33333333  0.57851433  1
  S  S36  1  0.83125633  0.16874367  0.41417267  1
  S  S37  1  0.33534067  0.16767033  0.92865733  1
  S  S38  1  0.83232967  0.66465933  0.92865733  1
  S  S39  1  0.49792300  0.99584600  0.74750600  1
  S  S40  1  0.00415400  0.50207700  0.74750600  1
  S  S41  1  0.83232967  0.16767033  0.92865733  1
  S  S42  1  0.00000000  0.00000000  0.72680000  1
  S  S43  1  0.33333333  0.66666667  0.91184767  1
  S  S44  1  0.49792300  0.50207700  0.74750600  1
