# generated using pymatgen
data_CaSi2
_symmetry_space_group_name_H-M   'P 1'
_cell_length_a   3.83826147
_cell_length_b   3.83826147
_cell_length_c   15.83553987
_cell_angle_alpha   90.00000000
_cell_angle_beta   90.00000000
_cell_angle_gamma   120.00000000
_symmetry_Int_Tables_number   1
_chemical_formula_structural   CaSi2
_chemical_formula_sum   'Ca3 Si6'
_cell_volume   202.03779415
_cell_formula_units_Z   3
loop_
 _symmetry_equiv_pos_site_id
 _symmetry_equiv_pos_as_xyz
  1  'x, y, z'
loop_
 _atom_site_type_symbol
 _atom_site_label
 _atom_site_symmetry_multiplicity
 _atom_site_fract_x
 _atom_site_fract_y
 _atom_site_fract_z
 _atom_site_occupancy
  Ca  Ca0  1  0.00000000  0.00000000  0.00000000  1
  Ca  Ca1  1  0.66666667  0.33333333  0.33333333  1
  Ca  Ca2  1  0.33333333  0.66666667  0.66666667  1
  Si  Si3  1  0.66666667  0.33333333  0.13649378  1
  Si  Si4  1  0.00000000  0.00000000  0.19683955  1
  Si  Si5  1  0.33333333  0.66666667  0.46982712  1
  Si  Si6  1  0.66666667  0.33333333  0.53017288  1
  Si  Si7  1  0.00000000  0.00000000  0.80316045  1
  Si  Si8  1  0.33333333  0.66666667  0.86350622  1
