# generated using pymatgen
data_Cs2PtCl4
_symmetry_space_group_name_H-M   'P 1'
_cell_length_a   10.49505878
_cell_length_b   10.50908281
_cell_length_c   9.50254960
_cell_angle_alpha   90.00000000
_cell_angle_beta   90.00000000
_cell_angle_gamma   90.00000000
_symmetry_Int_Tables_number   1
_chemical_formula_structural   Cs2PtCl4
_chemical_formula_sum   'Cs8 Pt4 Cl16'
_cell_volume   1048.06890106
_cell_formula_units_Z   4
loop_
 _symmetry_equiv_pos_site_id
 _symmetry_equiv_pos_as_xyz
  1  'x, y, z'
loop_
 _atom_site_type_symbol
 _atom_site_label
 _atom_site_symmetry_multiplicity
 _atom_site_fract_x
 _atom_site_fract_y
 _atom_site_fract_z
 _atom_site_occupancy
  Cs  Cs0  1  0.75494399  0.74978098  0.75000000  1
  Cs  Cs1  1  0.75494399  0.25021902  0.25000000  1
  Cs  Cs2  1  0.24505601  0.25021902  0.25000000  1
  Cs  Cs3  1  0.24505601  0.74978098  0.75000000  1
  Cs  Cs4  1  0.25494399  0.24978098  0.75000000  1
  Cs  Cs5  1  0.25494399  0.75021902  0.25000000  1
  Cs  Cs6  1  0.74505601  0.75021902  0.25000000  1
  Cs  Cs7  1  0.74505601  0.24978098  0.75000000  1
  Pt  Pt8  1  0.00000000  0.00000000  0.50000000  1
  Pt  Pt9  1  0.00000000  0.00000000  0.00000000  1
  Pt  Pt10  1  0.50000000  0.50000000  0.50000000  1
  Pt  Pt11  1  0.50000000  0.50000000  0.00000000  1
  Cl  Cl12  1  0.00000000  0.77948922  0.49342935  1
  Cl  Cl13  1  0.00000000  0.77948922  0.00657065  1
  Cl  Cl14  1  0.72075084  0.50000000  0.00000000  1
  Cl  Cl15  1  0.27924916  0.50000000  0.50000000  1
  Cl  Cl16  1  0.27924916  0.50000000  0.00000000  1
  Cl  Cl17  1  0.00000000  0.22051078  0.50657065  1
  Cl  Cl18  1  0.00000000  0.22051078  0.99342935  1
  Cl  Cl19  1  0.72075084  0.50000000  0.50000000  1
  Cl  Cl20  1  0.50000000  0.27948922  0.49342935  1
  Cl  Cl21  1  0.50000000  0.27948922  0.00657065  1
  Cl  Cl22  1  0.22075084  0.00000000  0.00000000  1
  Cl  Cl23  1  0.77924916  0.00000000  0.50000000  1
  Cl  Cl24  1  0.77924916  0.00000000  0.00000000  1
  Cl  Cl25  1  0.50000000  0.72051078  0.50657065  1
  Cl  Cl26  1  0.50000000  0.72051078  0.99342935  1
  Cl  Cl27  1  0.22075084  0.00000000  0.50000000  1
