# generated using pymatgen
data_WCl3
_symmetry_space_group_name_H-M   'P 1'
_cell_length_a   15.15539251
_cell_length_b   15.15539251
_cell_length_c   8.87292076
_cell_angle_alpha   90.00000000
_cell_angle_beta   90.00000000
_cell_angle_gamma   120.00000000
_symmetry_Int_Tables_number   1
_chemical_formula_structural   WCl3
_chemical_formula_sum   'W18 Cl54'
_cell_volume   1764.94677162
_cell_formula_units_Z   18
loop_
 _symmetry_equiv_pos_site_id
 _symmetry_equiv_pos_as_xyz
  1  'x, y, z'
loop_
 _atom_site_type_symbol
 _atom_site_label
 _atom_site_symmetry_multiplicity
 _atom_site_fract_x
 _atom_site_fract_y
 _atom_site_fract_z
 _atom_site_occupancy
  W  W0  1  0.32093353  0.55448433  0.52808208  1
  W  W1  1  0.11218234  0.09978254  0.86141541  1
  W  W2  1  0.56688413  0.34573313  0.19474874  1
  W  W3  1  0.34573313  0.77884901  0.80525126  1
  W  W4  1  0.55448433  0.23355079  0.47191792  1
  W  W5  1  0.09978254  0.98760020  0.13858459  1
  W  W6  1  0.98760020  0.88781766  0.86141541  1
  W  W7  1  0.77884901  0.43311587  0.19474874  1
  W  W8  1  0.23355079  0.67906647  0.52808208  1
  W  W9  1  0.01239980  0.11218234  0.13858459  1
  W  W10  1  0.22115099  0.56688413  0.80525126  1
  W  W11  1  0.76644921  0.32093353  0.47191792  1
  W  W12  1  0.65426687  0.22115099  0.19474874  1
  W  W13  1  0.44551567  0.76644921  0.52808208  1
  W  W14  1  0.90021746  0.01239980  0.86141541  1
  W  W15  1  0.67906647  0.44551567  0.47191792  1
  W  W16  1  0.88781766  0.90021746  0.13858459  1
  W  W17  1  0.43311587  0.65426687  0.80525126  1
  Cl  Cl18  1  0.30639046  0.41611280  0.37645693  1
  Cl  Cl19  1  0.25055387  0.22361100  0.70979026  1
  Cl  Cl20  1  0.44305567  0.36027620  0.04312359  1
  Cl  Cl21  1  0.36027620  0.91722054  0.95687641  1
  Cl  Cl22  1  0.41611280  0.10972233  0.62354307  1
  Cl  Cl23  1  0.22361100  0.97305713  0.29020974  1
  Cl  Cl24  1  0.13274048  0.11825858  0.32059244  1
  Cl  Cl25  1  0.31885144  0.53392619  0.98725911  1
  Cl  Cl26  1  0.54840808  0.34781523  0.65392578  1
  Cl  Cl27  1  0.53392619  0.21507475  0.01274089  1
  Cl  Cl28  1  0.34781523  0.79940714  0.34607422  1
  Cl  Cl29  1  0.11825858  0.98551811  0.67940756  1
  Cl  Cl30  1  0.43403356  0.52009331  0.66816993  1
  Cl  Cl31  1  0.41939308  0.23263310  0.33483659  1
  Cl  Cl32  1  0.14657336  0.24727359  0.00150326  1
  Cl  Cl33  1  0.23263310  0.81324003  0.66516341  1
  Cl  Cl34  1  0.24727359  0.10070023  0.99849674  1
  Cl  Cl35  1  0.52009331  0.08605974  0.33183007  1
  Cl  Cl36  1  0.97305713  0.74944613  0.70979026  1
  Cl  Cl37  1  0.91722054  0.55694433  0.04312359  1
  Cl  Cl38  1  0.10972233  0.69360954  0.37645693  1
  Cl  Cl39  1  0.02694287  0.25055387  0.29020974  1
  Cl  Cl40  1  0.08277946  0.44305567  0.95687641  1
  Cl  Cl41  1  0.89027767  0.30639046  0.62354307  1
  Cl  Cl42  1  0.79940714  0.45159192  0.65392578  1
  Cl  Cl43  1  0.98551811  0.86725952  0.32059244  1
  Cl  Cl44  1  0.21507475  0.68114856  0.98725911  1
  Cl  Cl45  1  0.20059286  0.54840808  0.34607422  1
  Cl  Cl46  1  0.01448189  0.13274048  0.67940756  1
  Cl  Cl47  1  0.78492525  0.31885144  0.01274089  1
  Cl  Cl48  1  0.10070023  0.85342664  0.00150326  1
  Cl  Cl49  1  0.08605974  0.56596644  0.66816993  1
  Cl  Cl50  1  0.81324003  0.58060692  0.33483659  1
  Cl  Cl51  1  0.89929977  0.14657336  0.99849674  1
  Cl  Cl52  1  0.91394026  0.43403356  0.33183007  1
  Cl  Cl53  1  0.18675997  0.41939308  0.66516341  1
  Cl  Cl54  1  0.63972380  0.08277946  0.04312359  1
  Cl  Cl55  1  0.58388720  0.89027767  0.37645693  1
  Cl  Cl56  1  0.77638900  0.02694287  0.70979026  1
  Cl  Cl57  1  0.69360954  0.58388720  0.62354307  1
  Cl  Cl58  1  0.74944613  0.77638900  0.29020974  1
  Cl  Cl59  1  0.55694433  0.63972380  0.95687641  1
  Cl  Cl60  1  0.46607381  0.78492525  0.98725911  1
  Cl  Cl61  1  0.65218477  0.20059286  0.65392578  1
  Cl  Cl62  1  0.88174142  0.01448189  0.32059244  1
  Cl  Cl63  1  0.86725952  0.88174142  0.67940756  1
  Cl  Cl64  1  0.68114856  0.46607381  0.01274089  1
  Cl  Cl65  1  0.45159192  0.65218477  0.34607422  1
  Cl  Cl66  1  0.76736690  0.18675997  0.33483659  1
  Cl  Cl67  1  0.75272641  0.89929977  0.00150326  1
  Cl  Cl68  1  0.47990669  0.91394026  0.66816993  1
  Cl  Cl69  1  0.56596644  0.47990669  0.33183007  1
  Cl  Cl70  1  0.58060692  0.76736690  0.66516341  1
  Cl  Cl71  1  0.85342664  0.75272641  0.99849674  1
