# generated using pymatgen
data_Sc2Co3Si
_symmetry_space_group_name_H-M   'P 1'
_cell_length_a   4.99139013
_cell_length_b   4.99139013
_cell_length_c   7.40301522
_cell_angle_alpha   90.00000000
_cell_angle_beta   90.00000000
_cell_angle_gamma   120.00000000
_symmetry_Int_Tables_number   1
_chemical_formula_structural   Sc2Co3Si
_chemical_formula_sum   'Sc4 Co6 Si2'
_cell_volume   159.72846078
_cell_formula_units_Z   2
loop_
 _symmetry_equiv_pos_site_id
 _symmetry_equiv_pos_as_xyz
  1  'x, y, z'
loop_
 _atom_site_type_symbol
 _atom_site_label
 _atom_site_symmetry_multiplicity
 _atom_site_fract_x
 _atom_site_fract_y
 _atom_site_fract_z
 _atom_site_occupancy
  Sc  Sc0  1  0.33333333  0.66666667  0.56067488  1
  Sc  Sc1  1  0.66666667  0.33333333  0.43932512  1
  Sc  Sc2  1  0.66666667  0.33333333  0.06067488  1
  Sc  Sc3  1  0.33333333  0.66666667  0.93932512  1
  Co  Co4  1  0.82957891  0.17042109  0.75000000  1
  Co  Co5  1  0.65915783  0.82957891  0.25000000  1
  Co  Co6  1  0.17042109  0.82957891  0.25000000  1
  Co  Co7  1  0.82957891  0.65915783  0.75000000  1
  Co  Co8  1  0.17042109  0.34084217  0.25000000  1
  Co  Co9  1  0.34084217  0.17042109  0.75000000  1
  Si  Si10  1  0.00000000  0.00000000  0.50000000  1
  Si  Si11  1  0.00000000  0.00000000  0.00000000  1
