# generated using pymatgen
data_AsPd5
_symmetry_space_group_name_H-M   'P 1'
_cell_length_a   5.56802037
_cell_length_b   7.76359732
_cell_length_c   8.51508225
_cell_angle_alpha   90.00000000
_cell_angle_beta   98.62612414
_cell_angle_gamma   90.00000000
_symmetry_Int_Tables_number   1
_chemical_formula_structural   AsPd5
_chemical_formula_sum   'As4 Pd20'
_cell_volume   363.92506662
_cell_formula_units_Z   4
loop_
 _symmetry_equiv_pos_site_id
 _symmetry_equiv_pos_as_xyz
  1  'x, y, z'
loop_
 _atom_site_type_symbol
 _atom_site_label
 _atom_site_symmetry_multiplicity
 _atom_site_fract_x
 _atom_site_fract_y
 _atom_site_fract_z
 _atom_site_occupancy
  As  As0  1  0.77166541  0.00000000  0.28718733  1
  As  As1  1  0.22833459  0.00000000  0.71281267  1
  As  As2  1  0.27166541  0.50000000  0.28718733  1
  As  As3  1  0.72833459  0.50000000  0.71281267  1
  Pd  Pd4  1  0.53607634  0.73944265  0.17429554  1
  Pd  Pd5  1  0.46392366  0.73944265  0.82570446  1
  Pd  Pd6  1  0.53607634  0.26055735  0.17429554  1
  Pd  Pd7  1  0.46392366  0.26055735  0.82570446  1
  Pd  Pd8  1  0.35581989  0.00000000  0.35211549  1
  Pd  Pd9  1  0.64418011  0.00000000  0.64788451  1
  Pd  Pd10  1  0.25627911  0.00000000  0.00605832  1
  Pd  Pd11  1  0.74372089  0.00000000  0.99394168  1
  Pd  Pd12  1  0.50000000  0.31655109  0.50000000  1
  Pd  Pd13  1  0.50000000  0.68344891  0.50000000  1
  Pd  Pd14  1  0.03607634  0.23944265  0.17429554  1
  Pd  Pd15  1  0.96392366  0.23944265  0.82570446  1
  Pd  Pd16  1  0.03607634  0.76055735  0.17429554  1
  Pd  Pd17  1  0.96392366  0.76055735  0.82570446  1
  Pd  Pd18  1  0.85581989  0.50000000  0.35211549  1
  Pd  Pd19  1  0.14418011  0.50000000  0.64788451  1
  Pd  Pd20  1  0.75627911  0.50000000  0.00605832  1
  Pd  Pd21  1  0.24372089  0.50000000  0.99394168  1
  Pd  Pd22  1  0.00000000  0.81655108  0.50000000  1
  Pd  Pd23  1  0.00000000  0.18344891  0.50000000  1
