# generated using pymatgen
data_K4CdAs2
_symmetry_space_group_name_H-M   'P 1'
_cell_length_a   5.79796765
_cell_length_b   5.79796765
_cell_length_c   27.78184800
_cell_angle_alpha   90.00000000
_cell_angle_beta   90.00000000
_cell_angle_gamma   120.00000000
_symmetry_Int_Tables_number   1
_chemical_formula_structural   K4CdAs2
_chemical_formula_sum   'K12 Cd3 As6'
_cell_volume   808.80409013
_cell_formula_units_Z   3
loop_
 _symmetry_equiv_pos_site_id
 _symmetry_equiv_pos_as_xyz
  1  'x, y, z'
loop_
 _atom_site_type_symbol
 _atom_site_label
 _atom_site_symmetry_multiplicity
 _atom_site_fract_x
 _atom_site_fract_y
 _atom_site_fract_z
 _atom_site_occupancy
  K  K0  1  0.00000000  0.00000000  0.20833162  1
  K  K1  1  0.66666667  0.33333333  0.12500171  1
  K  K2  1  0.33333333  0.66666667  0.05838075  1
  K  K3  1  0.33333333  0.66666667  0.27495259  1
  K  K4  1  0.66666667  0.33333333  0.54166495  1
  K  K5  1  0.33333333  0.66666667  0.45833505  1
  K  K6  1  0.00000000  0.00000000  0.39171408  1
  K  K7  1  0.00000000  0.00000000  0.60828592  1
  K  K8  1  0.33333333  0.66666667  0.87499829  1
  K  K9  1  0.00000000  0.00000000  0.79166838  1
  K  K10  1  0.66666667  0.33333333  0.72504741  1
  K  K11  1  0.66666667  0.33333333  0.94161925  1
  Cd  Cd12  1  0.00000000  0.00000000  0.00000000  1
  Cd  Cd13  1  0.66666667  0.33333333  0.33333333  1
  Cd  Cd14  1  0.33333333  0.66666667  0.66666667  1
  As  As15  1  0.66666667  0.33333333  0.24387409  1
  As  As16  1  0.00000000  0.00000000  0.08945924  1
  As  As17  1  0.33333333  0.66666667  0.57720743  1
  As  As18  1  0.66666667  0.33333333  0.42279257  1
  As  As19  1  0.00000000  0.00000000  0.91054076  1
  As  As20  1  0.33333333  0.66666667  0.75612591  1
