# generated using pymatgen
data_FeGe
_symmetry_space_group_name_H-M   'P 1'
_cell_length_a   11.64702003
_cell_length_b   3.96631559
_cell_length_c   4.89499995
_cell_angle_alpha   90.00000000
_cell_angle_beta   104.13221046
_cell_angle_gamma   90.00000000
_symmetry_Int_Tables_number   1
_chemical_formula_structural   FeGe
_chemical_formula_sum   'Fe8 Ge8'
_cell_volume   219.28443721
_cell_formula_units_Z   8
loop_
 _symmetry_equiv_pos_site_id
 _symmetry_equiv_pos_as_xyz
  1  'x, y, z'
loop_
 _atom_site_type_symbol
 _atom_site_label
 _atom_site_symmetry_multiplicity
 _atom_site_fract_x
 _atom_site_fract_y
 _atom_site_fract_z
 _atom_site_occupancy
  Fe  Fe0  1  0.00000000  0.00000000  0.00000000  1
  Fe  Fe1  1  0.00000000  0.00000000  0.50000000  1
  Fe  Fe2  1  0.70590500  0.50000000  0.36432010  1
  Fe  Fe3  1  0.79409500  0.00000000  0.63567990  1
  Fe  Fe4  1  0.50000000  0.50000000  0.00000000  1
  Fe  Fe5  1  0.50000000  0.50000000  0.50000000  1
  Fe  Fe6  1  0.20590500  0.00000000  0.36432010  1
  Fe  Fe7  1  0.29409500  0.50000000  0.63567990  1
  Ge  Ge8  1  0.81228551  0.00000000  0.15105351  1
  Ge  Ge9  1  0.68771449  0.50000000  0.84894649  1
  Ge  Ge10  1  0.56873741  0.00000000  0.29260938  1
  Ge  Ge11  1  0.93126259  0.50000000  0.70739062  1
  Ge  Ge12  1  0.31228551  0.50000000  0.15105351  1
  Ge  Ge13  1  0.18771449  0.00000000  0.84894649  1
  Ge  Ge14  1  0.06873741  0.50000000  0.29260938  1
  Ge  Ge15  1  0.43126259  0.00000000  0.70739062  1
