# generated using pymatgen
data_ZrNiH3
_symmetry_space_group_name_H-M   'P 1'
_cell_length_a   3.50849118
_cell_length_b   10.46847940
_cell_length_c   4.29288545
_cell_angle_alpha   90.00000000
_cell_angle_beta   90.00000000
_cell_angle_gamma   90.00000000
_symmetry_Int_Tables_number   1
_chemical_formula_structural   ZrNiH3
_chemical_formula_sum   'Zr4 Ni4 H12'
_cell_volume   157.67153361
_cell_formula_units_Z   4
loop_
 _symmetry_equiv_pos_site_id
 _symmetry_equiv_pos_as_xyz
  1  'x, y, z'
loop_
 _atom_site_type_symbol
 _atom_site_label
 _atom_site_symmetry_multiplicity
 _atom_site_fract_x
 _atom_site_fract_y
 _atom_site_fract_z
 _atom_site_occupancy
  Zr  Zr0  1  0.50000000  0.36160812  0.75000000  1
  Zr  Zr1  1  0.00000000  0.13839188  0.25000000  1
  Zr  Zr2  1  0.00000000  0.86160812  0.75000000  1
  Zr  Zr3  1  0.50000000  0.63839188  0.25000000  1
  Ni  Ni4  1  0.50000000  0.06918909  0.75000000  1
  Ni  Ni5  1  0.00000000  0.43081091  0.25000000  1
  Ni  Ni6  1  0.00000000  0.56918910  0.75000000  1
  Ni  Ni7  1  0.50000000  0.93081090  0.25000000  1
  H  H8  1  0.50000000  0.18684121  0.00149231  1
  H  H9  1  0.00000000  0.31315879  0.99850769  1
  H  H10  1  0.00000000  0.31315879  0.50149231  1
  H  H11  1  0.50000000  0.18684121  0.49850769  1
  H  H12  1  0.00000000  0.06912459  0.75000000  1
  H  H13  1  0.50000000  0.43087540  0.25000000  1
  H  H14  1  0.00000000  0.68684121  0.00149231  1
  H  H15  1  0.50000000  0.81315879  0.99850769  1
  H  H16  1  0.50000000  0.81315879  0.50149231  1
  H  H17  1  0.00000000  0.68684121  0.49850769  1
  H  H18  1  0.50000000  0.56912460  0.75000000  1
  H  H19  1  0.00000000  0.93087540  0.25000000  1
