# generated using pymatgen
data_Cu4SiP8
_symmetry_space_group_name_H-M   'P 1'
_cell_length_a   12.16740509
_cell_length_b   12.16740509
_cell_length_c   5.69188025
_cell_angle_alpha   90.00000000
_cell_angle_beta   90.00000000
_cell_angle_gamma   90.00000000
_symmetry_Int_Tables_number   1
_chemical_formula_structural   Cu4SiP8
_chemical_formula_sum   'Cu16 Si4 P32'
_cell_volume   842.65866096
_cell_formula_units_Z   4
loop_
 _symmetry_equiv_pos_site_id
 _symmetry_equiv_pos_as_xyz
  1  'x, y, z'
loop_
 _atom_site_type_symbol
 _atom_site_label
 _atom_site_symmetry_multiplicity
 _atom_site_fract_x
 _atom_site_fract_y
 _atom_site_fract_z
 _atom_site_occupancy
  Cu  Cu0  1  0.79791215  0.51236481  0.31444253  1
  Cu  Cu1  1  0.48763519  0.29791215  0.06444253  1
  Cu  Cu2  1  0.51236481  0.70208785  0.06444253  1
  Cu  Cu3  1  0.20208785  0.48763519  0.31444253  1
  Cu  Cu4  1  0.70208785  0.48763519  0.93555747  1
  Cu  Cu5  1  0.51236481  0.20208785  0.68555747  1
  Cu  Cu6  1  0.48763519  0.79791215  0.68555747  1
  Cu  Cu7  1  0.29791215  0.51236481  0.93555747  1
  Cu  Cu8  1  0.29791215  0.01236481  0.81444253  1
  Cu  Cu9  1  0.98763519  0.79791215  0.56444253  1
  Cu  Cu10  1  0.01236481  0.20208785  0.56444253  1
  Cu  Cu11  1  0.70208785  0.98763519  0.81444253  1
  Cu  Cu12  1  0.20208785  0.98763519  0.43555747  1
  Cu  Cu13  1  0.01236481  0.70208785  0.18555747  1
  Cu  Cu14  1  0.98763519  0.29791215  0.18555747  1
  Cu  Cu15  1  0.79791215  0.01236481  0.43555747  1
  Si  Si16  1  0.50000000  0.50000000  0.50000000  1
  Si  Si17  1  0.00000000  0.50000000  0.75000000  1
  Si  Si18  1  0.00000000  0.00000000  0.00000000  1
  Si  Si19  1  0.50000000  0.00000000  0.25000000  1
  P  P20  1  0.11435565  0.41116109  0.99606762  1
  P  P21  1  0.41116109  0.38564435  0.74606762  1
  P  P22  1  0.41116109  0.88564435  0.00393238  1
  P  P23  1  0.61435565  0.41116109  0.25393238  1
  P  P24  1  0.38564435  0.58883891  0.25393238  1
  P  P25  1  0.58883891  0.11435565  0.00393238  1
  P  P26  1  0.58883891  0.61435565  0.74606762  1
  P  P27  1  0.88564435  0.58883891  0.99606762  1
  P  P28  1  0.34614825  0.72738270  0.47887326  1
  P  P29  1  0.77261730  0.34614825  0.72887326  1
  P  P30  1  0.22738270  0.65385175  0.72887326  1
  P  P31  1  0.65385175  0.27261730  0.47887326  1
  P  P32  1  0.65385175  0.77261730  0.27112674  1
  P  P33  1  0.72738270  0.65385175  0.52112674  1
  P  P34  1  0.27261730  0.34614825  0.52112674  1
  P  P35  1  0.34614825  0.22738270  0.27112674  1
  P  P36  1  0.61435565  0.91116109  0.49606762  1
  P  P37  1  0.91116109  0.88564435  0.24606762  1
  P  P38  1  0.91116109  0.38564435  0.50393238  1
  P  P39  1  0.11435565  0.91116109  0.75393238  1
  P  P40  1  0.88564435  0.08883891  0.75393238  1
  P  P41  1  0.08883891  0.61435565  0.50393238  1
  P  P42  1  0.08883891  0.11435565  0.24606762  1
  P  P43  1  0.38564435  0.08883891  0.49606762  1
  P  P44  1  0.84614825  0.22738270  0.97887326  1
  P  P45  1  0.27261730  0.84614825  0.22887326  1
  P  P46  1  0.72738270  0.15385175  0.22887326  1
  P  P47  1  0.15385175  0.77261730  0.97887326  1
  P  P48  1  0.15385175  0.27261730  0.77112674  1
  P  P49  1  0.22738270  0.15385175  0.02112674  1
  P  P50  1  0.77261730  0.84614825  0.02112674  1
  P  P51  1  0.84614825  0.72738270  0.77112674  1
