# generated using pymatgen
data_Co2P
_symmetry_space_group_name_H-M   'P 1'
_cell_length_a   3.44718675
_cell_length_b   5.73452173
_cell_length_c   6.43602357
_cell_angle_alpha   90.00000000
_cell_angle_beta   90.00000000
_cell_angle_gamma   90.00000000
_symmetry_Int_Tables_number   1
_chemical_formula_structural   Co2P
_chemical_formula_sum   'Co8 P4'
_cell_volume   127.22710369
_cell_formula_units_Z   4
loop_
 _symmetry_equiv_pos_site_id
 _symmetry_equiv_pos_as_xyz
  1  'x, y, z'
loop_
 _atom_site_type_symbol
 _atom_site_label
 _atom_site_symmetry_multiplicity
 _atom_site_fract_x
 _atom_site_fract_y
 _atom_site_fract_z
 _atom_site_occupancy
  Co  Co0  1  0.75000000  0.53711051  0.66832137  1
  Co  Co1  1  0.25000000  0.46288949  0.33167863  1
  Co  Co2  1  0.75000000  0.03711051  0.83167863  1
  Co  Co3  1  0.25000000  0.96288949  0.16832137  1
  Co  Co4  1  0.25000000  0.85937955  0.56502221  1
  Co  Co5  1  0.75000000  0.14062045  0.43497779  1
  Co  Co6  1  0.25000000  0.35937955  0.93497779  1
  Co  Co7  1  0.75000000  0.64062045  0.06502221  1
  P  P8  1  0.25000000  0.24040316  0.62207613  1
  P  P9  1  0.75000000  0.75959684  0.37792387  1
  P  P10  1  0.25000000  0.74040316  0.87792387  1
  P  P11  1  0.75000000  0.25959684  0.12207613  1
