# generated using pymatgen
data_ScSn2
_symmetry_space_group_name_H-M   'P 1'
_cell_length_a   4.25283068
_cell_length_b   4.25283068
_cell_length_c   31.22811620
_cell_angle_alpha   90.00000000
_cell_angle_beta   90.00000000
_cell_angle_gamma   90.00000000
_symmetry_Int_Tables_number   1
_chemical_formula_structural   ScSn2
_chemical_formula_sum   'Sc8 Sn16'
_cell_volume   564.80947096
_cell_formula_units_Z   8
loop_
 _symmetry_equiv_pos_site_id
 _symmetry_equiv_pos_as_xyz
  1  'x, y, z'
loop_
 _atom_site_type_symbol
 _atom_site_label
 _atom_site_symmetry_multiplicity
 _atom_site_fract_x
 _atom_site_fract_y
 _atom_site_fract_z
 _atom_site_occupancy
  Sc  Sc0  1  0.50000000  0.00000000  0.07619770  1
  Sc  Sc1  1  0.00000000  0.00000000  0.32619770  1
  Sc  Sc2  1  0.50000000  0.50000000  0.17380230  1
  Sc  Sc3  1  0.00000000  0.50000000  0.92380230  1
  Sc  Sc4  1  0.00000000  0.50000000  0.57619770  1
  Sc  Sc5  1  0.50000000  0.50000000  0.82619770  1
  Sc  Sc6  1  0.00000000  0.00000000  0.67380230  1
  Sc  Sc7  1  0.50000000  0.00000000  0.42380230  1
  Sn  Sn8  1  0.50000000  0.00000000  0.90771225  1
  Sn  Sn9  1  0.00000000  0.00000000  0.15771224  1
  Sn  Sn10  1  0.50000000  0.50000000  0.34228775  1
  Sn  Sn11  1  0.00000000  0.50000000  0.09228775  1
  Sn  Sn12  1  0.50000000  0.00000000  0.25000000  1
  Sn  Sn13  1  0.50000000  0.50000000  0.00000000  1
  Sn  Sn14  1  0.00000000  0.00000000  0.00000000  1
  Sn  Sn15  1  0.00000000  0.50000000  0.25000000  1
  Sn  Sn16  1  0.00000000  0.50000000  0.40771224  1
  Sn  Sn17  1  0.50000000  0.50000000  0.65771224  1
  Sn  Sn18  1  0.00000000  0.00000000  0.84228775  1
  Sn  Sn19  1  0.50000000  0.00000000  0.59228775  1
  Sn  Sn20  1  0.00000000  0.50000000  0.75000000  1
  Sn  Sn21  1  0.00000000  0.00000000  0.50000000  1
  Sn  Sn22  1  0.50000000  0.50000000  0.50000000  1
  Sn  Sn23  1  0.50000000  0.00000000  0.75000000  1
