# generated using pymatgen
data_SrN
_symmetry_space_group_name_H-M   'P 1'
_cell_length_a   13.46137390
_cell_length_b   3.82299559
_cell_length_c   6.71191539
_cell_angle_alpha   90.00000000
_cell_angle_beta   94.15609838
_cell_angle_gamma   90.00000000
_symmetry_Int_Tables_number   1
_chemical_formula_structural   SrN
_chemical_formula_sum   'Sr8 N8'
_cell_volume   344.50544445
_cell_formula_units_Z   8
loop_
 _symmetry_equiv_pos_site_id
 _symmetry_equiv_pos_as_xyz
  1  'x, y, z'
loop_
 _atom_site_type_symbol
 _atom_site_label
 _atom_site_symmetry_multiplicity
 _atom_site_fract_x
 _atom_site_fract_y
 _atom_site_fract_z
 _atom_site_occupancy
  Sr  Sr0  1  0.14386544  0.50000000  0.91187958  1
  Sr  Sr1  1  0.35613456  0.00000000  0.08812042  1
  Sr  Sr2  1  0.34632977  0.50000000  0.61123198  1
  Sr  Sr3  1  0.15367023  0.00000000  0.38876802  1
  Sr  Sr4  1  0.64386544  0.00000000  0.91187958  1
  Sr  Sr5  1  0.85613456  0.50000000  0.08812042  1
  Sr  Sr6  1  0.84632977  0.00000000  0.61123198  1
  Sr  Sr7  1  0.65367023  0.50000000  0.38876802  1
  N  N8  1  0.47720432  0.50000000  0.91588042  1
  N  N9  1  0.02279568  0.00000000  0.08411958  1
  N  N10  1  0.25306344  0.50000000  0.25103120  1
  N  N11  1  0.24693656  0.00000000  0.74896880  1
  N  N12  1  0.97720432  0.00000000  0.91588042  1
  N  N13  1  0.52279568  0.50000000  0.08411958  1
  N  N14  1  0.75306344  0.00000000  0.25103120  1
  N  N15  1  0.74693656  0.50000000  0.74896880  1
