# generated using pymatgen
data_CaIn2Pd
_symmetry_space_group_name_H-M   'P 1'
_cell_length_a   4.47532147
_cell_length_b   7.80954273
_cell_length_c   5.68610817
_cell_angle_alpha   90.00000000
_cell_angle_beta   112.95174695
_cell_angle_gamma   90.00000000
_symmetry_Int_Tables_number   1
_chemical_formula_structural   CaIn2Pd
_chemical_formula_sum   'Ca2 In4 Pd2'
_cell_volume   182.99790323
_cell_formula_units_Z   2
loop_
 _symmetry_equiv_pos_site_id
 _symmetry_equiv_pos_as_xyz
  1  'x, y, z'
loop_
 _atom_site_type_symbol
 _atom_site_label
 _atom_site_symmetry_multiplicity
 _atom_site_fract_x
 _atom_site_fract_y
 _atom_site_fract_z
 _atom_site_occupancy
  Ca  Ca0  1  0.43389058  0.75000000  0.86896453  1
  Ca  Ca1  1  0.56610942  0.25000000  0.13103547  1
  In  In2  1  0.14546914  0.94669401  0.29090543  1
  In  In3  1  0.85453086  0.05330599  0.70909457  1
  In  In4  1  0.85453086  0.44669401  0.70909457  1
  In  In5  1  0.14546914  0.55330599  0.29090543  1
  Pd  Pd6  1  0.71610122  0.75000000  0.43369998  1
  Pd  Pd7  1  0.28389878  0.25000000  0.56630002  1
