# generated using pymatgen
data_Ta3N5
_symmetry_space_group_name_H-M   'P 1'
_cell_length_a   3.88114493
_cell_length_b   10.27703640
_cell_length_c   10.30944779
_cell_angle_alpha   90.00000000
_cell_angle_beta   90.00000000
_cell_angle_gamma   90.00000000
_symmetry_Int_Tables_number   1
_chemical_formula_structural   Ta3N5
_chemical_formula_sum   'Ta12 N20'
_cell_volume   411.20951837
_cell_formula_units_Z   4
loop_
 _symmetry_equiv_pos_site_id
 _symmetry_equiv_pos_as_xyz
  1  'x, y, z'
loop_
 _atom_site_type_symbol
 _atom_site_label
 _atom_site_symmetry_multiplicity
 _atom_site_fract_x
 _atom_site_fract_y
 _atom_site_fract_z
 _atom_site_occupancy
  Ta  Ta0  1  0.50000000  0.30298832  0.75000000  1
  Ta  Ta1  1  0.00000000  0.13326860  0.93993506  1
  Ta  Ta2  1  0.50000000  0.36673140  0.06006494  1
  Ta  Ta3  1  0.50000000  0.36673140  0.43993506  1
  Ta  Ta4  1  0.00000000  0.19701168  0.25000000  1
  Ta  Ta5  1  0.00000000  0.13326860  0.56006494  1
  Ta  Ta6  1  0.00000000  0.80298832  0.75000000  1
  Ta  Ta7  1  0.50000000  0.63326860  0.93993506  1
  Ta  Ta8  1  0.00000000  0.86673140  0.06006494  1
  Ta  Ta9  1  0.00000000  0.86673140  0.43993506  1
  Ta  Ta10  1  0.50000000  0.69701168  0.25000000  1
  Ta  Ta11  1  0.50000000  0.63326860  0.56006494  1
  N  N12  1  0.50000000  0.45288527  0.88115503  1
  N  N13  1  0.00000000  0.30809483  0.07408571  1
  N  N14  1  0.50000000  0.19190517  0.92591429  1
  N  N15  1  0.00000000  0.30809483  0.42591429  1
  N  N16  1  0.50000000  0.26321807  0.25000000  1
  N  N17  1  0.50000000  0.19190517  0.57408571  1
  N  N18  1  0.50000000  0.45288527  0.61884497  1
  N  N19  1  0.00000000  0.04711473  0.38115503  1
  N  N20  1  0.00000000  0.23678193  0.75000000  1
  N  N21  1  0.00000000  0.04711473  0.11884497  1
  N  N22  1  0.00000000  0.95288527  0.88115503  1
  N  N23  1  0.50000000  0.80809483  0.07408571  1
  N  N24  1  0.00000000  0.69190517  0.92591429  1
  N  N25  1  0.50000000  0.80809483  0.42591429  1
  N  N26  1  0.00000000  0.76321807  0.25000000  1
  N  N27  1  0.00000000  0.69190517  0.57408571  1
  N  N28  1  0.00000000  0.95288527  0.61884497  1
  N  N29  1  0.50000000  0.54711473  0.38115503  1
  N  N30  1  0.50000000  0.73678193  0.75000000  1
  N  N31  1  0.50000000  0.54711473  0.11884497  1
