# generated using pymatgen
data_SrIn4Ni
_symmetry_space_group_name_H-M   'P 1'
_cell_length_a   4.50243477
_cell_length_b   17.13986561
_cell_length_c   7.32647958
_cell_angle_alpha   90.00000000
_cell_angle_beta   90.00000000
_cell_angle_gamma   90.00000000
_symmetry_Int_Tables_number   1
_chemical_formula_structural   SrIn4Ni
_chemical_formula_sum   'Sr4 In16 Ni4'
_cell_volume   565.39268470
_cell_formula_units_Z   4
loop_
 _symmetry_equiv_pos_site_id
 _symmetry_equiv_pos_as_xyz
  1  'x, y, z'
loop_
 _atom_site_type_symbol
 _atom_site_label
 _atom_site_symmetry_multiplicity
 _atom_site_fract_x
 _atom_site_fract_y
 _atom_site_fract_z
 _atom_site_occupancy
  Sr  Sr0  1  0.00000000  0.87879117  0.75000000  1
  Sr  Sr1  1  0.50000000  0.62120883  0.25000000  1
  Sr  Sr2  1  0.50000000  0.37879117  0.75000000  1
  Sr  Sr3  1  0.00000000  0.12120883  0.25000000  1
  In  In4  1  0.50000000  0.80987154  0.05017331  1
  In  In5  1  0.00000000  0.69012846  0.94982669  1
  In  In6  1  0.00000000  0.69012846  0.55017331  1
  In  In7  1  0.50000000  0.80987154  0.44982669  1
  In  In8  1  0.00000000  0.92392692  0.25000000  1
  In  In9  1  0.50000000  0.57607308  0.75000000  1
  In  In10  1  0.50000000  0.00000000  0.00000000  1
  In  In11  1  0.50000000  0.00000000  0.50000000  1
  In  In12  1  0.00000000  0.30987154  0.05017331  1
  In  In13  1  0.50000000  0.19012846  0.94982669  1
  In  In14  1  0.50000000  0.19012846  0.55017331  1
  In  In15  1  0.00000000  0.30987154  0.44982669  1
  In  In16  1  0.50000000  0.42392692  0.25000000  1
  In  In17  1  0.00000000  0.07607308  0.75000000  1
  In  In18  1  0.00000000  0.50000000  0.00000000  1
  In  In19  1  0.00000000  0.50000000  0.50000000  1
  Ni  Ni20  1  0.50000000  0.72490407  0.75000000  1
  Ni  Ni21  1  0.00000000  0.77509593  0.25000000  1
  Ni  Ni22  1  0.00000000  0.22490407  0.75000000  1
  Ni  Ni23  1  0.50000000  0.27509593  0.25000000  1
