# generated using pymatgen
data_Ag3P11
_symmetry_space_group_name_H-M   'P 1'
_cell_length_a   13.02619754
_cell_length_b   7.58144051
_cell_length_c   6.62176109
_cell_angle_alpha   90.00000000
_cell_angle_beta   118.92048183
_cell_angle_gamma   90.00000000
_symmetry_Int_Tables_number   1
_chemical_formula_structural   Ag3P11
_chemical_formula_sum   'Ag6 P22'
_cell_volume   572.39484551
_cell_formula_units_Z   2
loop_
 _symmetry_equiv_pos_site_id
 _symmetry_equiv_pos_as_xyz
  1  'x, y, z'
loop_
 _atom_site_type_symbol
 _atom_site_label
 _atom_site_symmetry_multiplicity
 _atom_site_fract_x
 _atom_site_fract_y
 _atom_site_fract_z
 _atom_site_occupancy
  Ag  Ag0  1  0.79188001  0.50000000  0.03288346  1
  Ag  Ag1  1  0.08832570  0.50000000  0.80045015  1
  Ag  Ag2  1  0.50061992  0.50000000  0.00579138  1
  Ag  Ag3  1  0.29188001  0.00000000  0.03288346  1
  Ag  Ag4  1  0.58832570  0.00000000  0.80045015  1
  Ag  Ag5  1  0.00061992  0.00000000  0.00579138  1
  P  P6  1  0.31013645  0.50000000  0.04382391  1
  P  P7  1  0.99116926  0.50000000  0.05213617  1
  P  P8  1  0.58304836  0.50000000  0.72790675  1
  P  P9  1  0.02060397  0.24371448  0.53070553  1
  P  P10  1  0.02060397  0.75628552  0.53070553  1
  P  P11  1  0.26206701  0.35103289  0.50089699  1
  P  P12  1  0.26206701  0.64896711  0.50089699  1
  P  P13  1  0.83300790  0.77814821  0.27146745  1
  P  P14  1  0.83300790  0.22185179  0.27146745  1
  P  P15  1  0.07973276  0.27181288  0.26563261  1
  P  P16  1  0.07973276  0.72818712  0.26563261  1
  P  P17  1  0.81013645  0.00000000  0.04382391  1
  P  P18  1  0.49116926  0.00000000  0.05213617  1
  P  P19  1  0.08304836  0.00000000  0.72790675  1
  P  P20  1  0.52060397  0.74371448  0.53070553  1
  P  P21  1  0.52060397  0.25628552  0.53070553  1
  P  P22  1  0.76206701  0.85103289  0.50089699  1
  P  P23  1  0.76206701  0.14896711  0.50089699  1
  P  P24  1  0.33300790  0.27814821  0.27146745  1
  P  P25  1  0.33300790  0.72185179  0.27146745  1
  P  P26  1  0.57973276  0.77181288  0.26563261  1
  P  P27  1  0.57973276  0.22818712  0.26563261  1
