# generated using pymatgen
data_Sc4NCl6
_symmetry_space_group_name_H-M   'P 1'
_cell_length_a   3.49215082
_cell_length_b   11.55839449
_cell_length_c   12.06368771
_cell_angle_alpha   90.00000000
_cell_angle_beta   90.00000000
_cell_angle_gamma   90.00000000
_symmetry_Int_Tables_number   1
_chemical_formula_structural   Sc4NCl6
_chemical_formula_sum   'Sc8 N2 Cl12'
_cell_volume   486.93455042
_cell_formula_units_Z   2
loop_
 _symmetry_equiv_pos_site_id
 _symmetry_equiv_pos_as_xyz
  1  'x, y, z'
loop_
 _atom_site_type_symbol
 _atom_site_label
 _atom_site_symmetry_multiplicity
 _atom_site_fract_x
 _atom_site_fract_y
 _atom_site_fract_z
 _atom_site_occupancy
  Sc  Sc0  1  0.50000000  0.60122593  0.07786782  1
  Sc  Sc1  1  0.50000000  0.39877407  0.92213218  1
  Sc  Sc2  1  0.50000000  0.10122593  0.42213218  1
  Sc  Sc3  1  0.50000000  0.89877407  0.57786782  1
  Sc  Sc4  1  0.00000000  0.62004033  0.85647881  1
  Sc  Sc5  1  0.00000000  0.37995967  0.14352119  1
  Sc  Sc6  1  0.00000000  0.12004033  0.64352119  1
  Sc  Sc7  1  0.00000000  0.87995967  0.35647881  1
  N  N8  1  0.00000000  0.50000000  0.00000000  1
  N  N9  1  0.00000000  0.00000000  0.50000000  1
  Cl  Cl10  1  0.00000000  0.76553911  0.67716153  1
  Cl  Cl11  1  0.00000000  0.23446089  0.32283847  1
  Cl  Cl12  1  0.00000000  0.26553911  0.82283847  1
  Cl  Cl13  1  0.00000000  0.73446089  0.17716153  1
  Cl  Cl14  1  0.50000000  0.75982025  0.93001298  1
  Cl  Cl15  1  0.50000000  0.24017975  0.06998702  1
  Cl  Cl16  1  0.50000000  0.98532216  0.24137972  1
  Cl  Cl17  1  0.50000000  0.01467784  0.75862028  1
  Cl  Cl18  1  0.50000000  0.48532216  0.25862028  1
  Cl  Cl19  1  0.50000000  0.51467784  0.74137972  1
  Cl  Cl20  1  0.50000000  0.74017975  0.43001298  1
  Cl  Cl21  1  0.50000000  0.25982025  0.56998702  1
