# generated using pymatgen
data_Cs2Mn3S4
_symmetry_space_group_name_H-M   'P 1'
_cell_length_a   6.08330977
_cell_length_b   11.61275500
_cell_length_c   14.17153359
_cell_angle_alpha   90.00000000
_cell_angle_beta   90.00000000
_cell_angle_gamma   90.00000000
_symmetry_Int_Tables_number   1
_chemical_formula_structural   Cs2Mn3S4
_chemical_formula_sum   'Cs8 Mn12 S16'
_cell_volume   1001.13361954
_cell_formula_units_Z   4
loop_
 _symmetry_equiv_pos_site_id
 _symmetry_equiv_pos_as_xyz
  1  'x, y, z'
loop_
 _atom_site_type_symbol
 _atom_site_label
 _atom_site_symmetry_multiplicity
 _atom_site_fract_x
 _atom_site_fract_y
 _atom_site_fract_z
 _atom_site_occupancy
  Cs  Cs0  1  0.23563106  0.11931334  0.00000000  1
  Cs  Cs1  1  0.73563106  0.38068666  0.00000000  1
  Cs  Cs2  1  0.26436894  0.61931334  0.00000000  1
  Cs  Cs3  1  0.76436894  0.88068666  0.00000000  1
  Cs  Cs4  1  0.73563106  0.61931334  0.50000000  1
  Cs  Cs5  1  0.23563106  0.88068666  0.50000000  1
  Cs  Cs6  1  0.76436894  0.11931334  0.50000000  1
  Cs  Cs7  1  0.26436894  0.38068666  0.50000000  1
  Mn  Mn8  1  0.00000000  0.50000000  0.75000000  1
  Mn  Mn9  1  0.00000000  0.50000000  0.25000000  1
  Mn  Mn10  1  0.50000000  0.72460591  0.75000000  1
  Mn  Mn11  1  0.50000000  0.27539409  0.75000000  1
  Mn  Mn12  1  0.50000000  0.72460591  0.25000000  1
  Mn  Mn13  1  0.50000000  0.27539409  0.25000000  1
  Mn  Mn14  1  0.50000000  0.00000000  0.25000000  1
  Mn  Mn15  1  0.50000000  0.00000000  0.75000000  1
  Mn  Mn16  1  0.00000000  0.22460591  0.25000000  1
  Mn  Mn17  1  0.00000000  0.77539409  0.25000000  1
  Mn  Mn18  1  0.00000000  0.22460591  0.75000000  1
  Mn  Mn19  1  0.00000000  0.77539409  0.75000000  1
  S  S20  1  0.78274281  0.63495186  0.84519869  1
  S  S21  1  0.78274281  0.36504814  0.65480131  1
  S  S22  1  0.21725719  0.63495186  0.65480131  1
  S  S23  1  0.21725719  0.36504814  0.84519869  1
  S  S24  1  0.78274281  0.36504814  0.34519870  1
  S  S25  1  0.78274281  0.63495186  0.15480131  1
  S  S26  1  0.21725719  0.63495186  0.34519870  1
  S  S27  1  0.21725719  0.36504814  0.15480131  1
  S  S28  1  0.28274281  0.13495186  0.34519870  1
  S  S29  1  0.28274281  0.86504814  0.15480130  1
  S  S30  1  0.71725719  0.13495186  0.15480130  1
  S  S31  1  0.71725719  0.86504814  0.34519870  1
  S  S32  1  0.28274281  0.86504814  0.84519870  1
  S  S33  1  0.28274281  0.13495186  0.65480131  1
  S  S34  1  0.71725719  0.13495186  0.84519870  1
  S  S35  1  0.71725719  0.86504814  0.65480131  1
