# generated using pymatgen
data_GaAu2
_symmetry_space_group_name_H-M   'P 1'
_cell_length_a   3.35997519
_cell_length_b   17.88561212
_cell_length_c   6.86989368
_cell_angle_alpha   90.00000000
_cell_angle_beta   90.00000000
_cell_angle_gamma   90.00000000
_symmetry_Int_Tables_number   1
_chemical_formula_structural   GaAu2
_chemical_formula_sum   'Ga8 Au16'
_cell_volume   412.84772403
_cell_formula_units_Z   8
loop_
 _symmetry_equiv_pos_site_id
 _symmetry_equiv_pos_as_xyz
  1  'x, y, z'
loop_
 _atom_site_type_symbol
 _atom_site_label
 _atom_site_symmetry_multiplicity
 _atom_site_fract_x
 _atom_site_fract_y
 _atom_site_fract_z
 _atom_site_occupancy
  Ga  Ga0  1  0.00000000  0.29033894  0.72546536  1
  Ga  Ga1  1  0.50000000  0.20966106  0.22546536  1
  Ga  Ga2  1  0.00000000  0.05909735  0.69500099  1
  Ga  Ga3  1  0.50000000  0.44090265  0.19500099  1
  Ga  Ga4  1  0.50000000  0.79033894  0.72546536  1
  Ga  Ga5  1  0.00000000  0.70966106  0.22546536  1
  Ga  Ga6  1  0.50000000  0.55909735  0.69500099  1
  Ga  Ga7  1  0.00000000  0.94090265  0.19500099  1
  Au  Au8  1  0.50000000  0.41334578  0.82264924  1
  Au  Au9  1  0.00000000  0.08665422  0.32264924  1
  Au  Au10  1  0.50000000  0.32962223  0.45020348  1
  Au  Au11  1  0.00000000  0.17037777  0.95020348  1
  Au  Au12  1  0.00000000  0.32284086  0.09544507  1
  Au  Au13  1  0.50000000  0.17715914  0.59544507  1
  Au  Au14  1  0.00000000  0.46445104  0.49923785  1
  Au  Au15  1  0.50000000  0.03554896  0.99923785  1
  Au  Au16  1  0.00000000  0.91334578  0.82264924  1
  Au  Au17  1  0.50000000  0.58665422  0.32264924  1
  Au  Au18  1  0.00000000  0.82962223  0.45020348  1
  Au  Au19  1  0.50000000  0.67037777  0.95020348  1
  Au  Au20  1  0.50000000  0.82284086  0.09544507  1
  Au  Au21  1  0.00000000  0.67715914  0.59544507  1
  Au  Au22  1  0.50000000  0.96445104  0.49923785  1
  Au  Au23  1  0.00000000  0.53554896  0.99923785  1
