# generated using pymatgen
data_Sc2Ni12P7
_symmetry_space_group_name_H-M   'P 1'
_cell_length_a   8.91809845
_cell_length_b   8.91809845
_cell_length_c   3.57676635
_cell_angle_alpha   90.00000000
_cell_angle_beta   90.00000000
_cell_angle_gamma   120.00000000
_symmetry_Int_Tables_number   1
_chemical_formula_structural   Sc2Ni12P7
_chemical_formula_sum   'Sc2 Ni12 P7'
_cell_volume   246.35746564
_cell_formula_units_Z   1
loop_
 _symmetry_equiv_pos_site_id
 _symmetry_equiv_pos_as_xyz
  1  'x, y, z'
loop_
 _atom_site_type_symbol
 _atom_site_label
 _atom_site_symmetry_multiplicity
 _atom_site_fract_x
 _atom_site_fract_y
 _atom_site_fract_z
 _atom_site_occupancy
  Sc  Sc0  1  0.66666667  0.33333333  0.50000000  1
  Sc  Sc1  1  0.33333333  0.66666667  0.00000000  1
  Ni  Ni2  1  0.38275111  0.43423941  0.50000000  1
  Ni  Ni3  1  0.05148831  0.61724889  0.50000000  1
  Ni  Ni4  1  0.21941815  0.09417018  0.50000000  1
  Ni  Ni5  1  0.87475204  0.78058185  0.50000000  1
  Ni  Ni6  1  0.90582982  0.12524796  0.50000000  1
  Ni  Ni7  1  0.72407637  0.87837995  0.00000000  1
  Ni  Ni8  1  0.12162005  0.84569641  0.00000000  1
  Ni  Ni9  1  0.15430359  0.27592363  0.00000000  1
  Ni  Ni10  1  0.93653319  0.37195744  0.00000000  1
  Ni  Ni11  1  0.62804256  0.56457574  0.00000000  1
  Ni  Ni12  1  0.43542426  0.06346681  0.00000000  1
  Ni  Ni13  1  0.56576059  0.94851169  0.50000000  1
  P  P14  1  0.00000000  0.00000000  0.00000000  1
  P  P15  1  0.41235208  0.29495373  0.00000000  1
  P  P16  1  0.58924788  0.70622380  0.50000000  1
  P  P17  1  0.29377620  0.88302407  0.50000000  1
  P  P18  1  0.11697593  0.41075212  0.50000000  1
  P  P19  1  0.70504627  0.11739834  0.00000000  1
  P  P20  1  0.88260166  0.58764792  0.00000000  1
