# generated using pymatgen
data_Pb3Au
_symmetry_space_group_name_H-M   'P 1'
_cell_length_a   13.45504070
_cell_length_b   12.02986267
_cell_length_c   6.08392049
_cell_angle_alpha   90.00000000
_cell_angle_beta   116.37467254
_cell_angle_gamma   90.00000000
_symmetry_Int_Tables_number   1
_chemical_formula_structural   Pb3Au
_chemical_formula_sum   'Pb24 Au8'
_cell_volume   882.25217490
_cell_formula_units_Z   8
loop_
 _symmetry_equiv_pos_site_id
 _symmetry_equiv_pos_as_xyz
  1  'x, y, z'
loop_
 _atom_site_type_symbol
 _atom_site_label
 _atom_site_symmetry_multiplicity
 _atom_site_fract_x
 _atom_site_fract_y
 _atom_site_fract_z
 _atom_site_occupancy
  Pb  Pb0  1  0.85769590  0.50047973  0.35673131  1
  Pb  Pb1  1  0.00000000  0.35835237  0.00000000  1
  Pb  Pb2  1  0.00000000  0.64260413  0.00000000  1
  Pb  Pb3  1  0.14230410  0.50047973  0.64326869  1
  Pb  Pb4  1  0.09658933  0.90306984  0.85135939  1
  Pb  Pb5  1  0.59598721  0.59558860  0.34234242  1
  Pb  Pb6  1  0.90341067  0.90306984  0.14864061  1
  Pb  Pb7  1  0.40401279  0.59558860  0.65765758  1
  Pb  Pb8  1  0.70423603  0.29626847  0.48189015  1
  Pb  Pb9  1  0.20175252  0.20315015  0.92478810  1
  Pb  Pb10  1  0.29576397  0.29626847  0.51810985  1
  Pb  Pb11  1  0.79824748  0.20315015  0.07521190  1
  Pb  Pb12  1  0.35769590  0.00047973  0.35673131  1
  Pb  Pb13  1  0.50000000  0.85835237  0.00000000  1
  Pb  Pb14  1  0.50000000  0.14260413  0.00000000  1
  Pb  Pb15  1  0.64230410  0.00047973  0.64326869  1
  Pb  Pb16  1  0.59658933  0.40306984  0.85135939  1
  Pb  Pb17  1  0.09598721  0.09558860  0.34234242  1
  Pb  Pb18  1  0.40341067  0.40306984  0.14864061  1
  Pb  Pb19  1  0.90401279  0.09558860  0.65765758  1
  Pb  Pb20  1  0.20423603  0.79626847  0.48189015  1
  Pb  Pb21  1  0.70175252  0.70315015  0.92478810  1
  Pb  Pb22  1  0.79576397  0.79626847  0.51810985  1
  Pb  Pb23  1  0.29824748  0.70315015  0.07521190  1
  Au  Au24  1  0.79578467  0.50028647  0.79512683  1
  Au  Au25  1  0.00000000  0.29621655  0.50000000  1
  Au  Au26  1  0.00000000  0.70513941  0.50000000  1
  Au  Au27  1  0.20421533  0.50028647  0.20487317  1
  Au  Au28  1  0.29578467  0.00028647  0.79512683  1
  Au  Au29  1  0.50000000  0.79621655  0.50000000  1
  Au  Au30  1  0.50000000  0.20513941  0.50000000  1
  Au  Au31  1  0.70421533  0.00028647  0.20487317  1
