# generated using pymatgen
data_KFeS2
_symmetry_space_group_name_H-M   'P 1'
_cell_length_a   7.07138913
_cell_length_b   11.01493374
_cell_length_c   5.35945095
_cell_angle_alpha   90.00000000
_cell_angle_beta   112.23751732
_cell_angle_gamma   90.00000000
_symmetry_Int_Tables_number   1
_chemical_formula_structural   KFeS2
_chemical_formula_sum   'K4 Fe4 S8'
_cell_volume   386.40350063
_cell_formula_units_Z   4
loop_
 _symmetry_equiv_pos_site_id
 _symmetry_equiv_pos_as_xyz
  1  'x, y, z'
loop_
 _atom_site_type_symbol
 _atom_site_label
 _atom_site_symmetry_multiplicity
 _atom_site_fract_x
 _atom_site_fract_y
 _atom_site_fract_z
 _atom_site_occupancy
  K  K0  1  0.50000000  0.85870758  0.75000000  1
  K  K1  1  0.50000000  0.14129242  0.25000000  1
  K  K2  1  0.00000000  0.35870758  0.75000000  1
  K  K3  1  0.00000000  0.64129242  0.25000000  1
  Fe  Fe4  1  0.50000000  0.50627174  0.25000000  1
  Fe  Fe5  1  0.50000000  0.49372826  0.75000000  1
  Fe  Fe6  1  0.00000000  0.00627174  0.25000000  1
  Fe  Fe7  1  0.00000000  0.99372826  0.75000000  1
  S  S8  1  0.80302220  0.89279153  0.39205273  1
  S  S9  1  0.19697780  0.89279153  0.10794727  1
  S  S10  1  0.80302220  0.10720847  0.89205273  1
  S  S11  1  0.19697780  0.10720847  0.60794727  1
  S  S12  1  0.30302220  0.39279153  0.39205273  1
  S  S13  1  0.69697780  0.39279153  0.10794727  1
  S  S14  1  0.30302220  0.60720847  0.89205273  1
  S  S15  1  0.69697780  0.60720847  0.60794727  1
