# generated using pymatgen
data_Ni4W
_symmetry_space_group_name_H-M   'P 1'
_cell_length_a   5.68504516
_cell_length_b   5.68504516
_cell_length_c   3.51725513
_cell_angle_alpha   90.00000000
_cell_angle_beta   90.00000000
_cell_angle_gamma   90.00000000
_symmetry_Int_Tables_number   1
_chemical_formula_structural   Ni4W
_chemical_formula_sum   'Ni8 W2'
_cell_volume   113.67676588
_cell_formula_units_Z   2
loop_
 _symmetry_equiv_pos_site_id
 _symmetry_equiv_pos_as_xyz
  1  'x, y, z'
loop_
 _atom_site_type_symbol
 _atom_site_label
 _atom_site_symmetry_multiplicity
 _atom_site_fract_x
 _atom_site_fract_y
 _atom_site_fract_z
 _atom_site_occupancy
  Ni  Ni0  1  0.59949487  0.80107105  0.00000000  1
  Ni  Ni1  1  0.30107105  0.90050513  0.50000000  1
  Ni  Ni2  1  0.69892895  0.09949487  0.50000000  1
  Ni  Ni3  1  0.40050513  0.19892895  0.00000000  1
  Ni  Ni4  1  0.09949487  0.30107105  0.50000000  1
  Ni  Ni5  1  0.80107105  0.40050513  0.00000000  1
  Ni  Ni6  1  0.19892895  0.59949487  0.00000000  1
  Ni  Ni7  1  0.90050513  0.69892895  0.50000000  1
  W  W8  1  0.00000000  0.00000000  0.00000000  1
  W  W9  1  0.50000000  0.50000000  0.50000000  1
