# generated using pymatgen
data_Zn11Ir2
_symmetry_space_group_name_H-M   'P 1'
_cell_length_a   9.03075430
_cell_length_b   9.03075430
_cell_length_c   9.03075430
_cell_angle_alpha   90.00000000
_cell_angle_beta   90.00000000
_cell_angle_gamma   90.00000000
_symmetry_Int_Tables_number   1
_chemical_formula_structural   Zn11Ir2
_chemical_formula_sum   'Zn44 Ir8'
_cell_volume   736.49886145
_cell_formula_units_Z   4
loop_
 _symmetry_equiv_pos_site_id
 _symmetry_equiv_pos_as_xyz
  1  'x, y, z'
loop_
 _atom_site_type_symbol
 _atom_site_label
 _atom_site_symmetry_multiplicity
 _atom_site_fract_x
 _atom_site_fract_y
 _atom_site_fract_z
 _atom_site_occupancy
  Zn  Zn0  1  0.19119773  0.54205590  0.19119773  1
  Zn  Zn1  1  0.04205590  0.30880227  0.30880227  1
  Zn  Zn2  1  0.30880227  0.30880227  0.04205590  1
  Zn  Zn3  1  0.30880227  0.69119773  0.95794410  1
  Zn  Zn4  1  0.10579788  0.10579788  0.10579788  1
  Zn  Zn5  1  0.39420212  0.39420212  0.60579788  1
  Zn  Zn6  1  0.10579788  0.89420212  0.89420212  1
  Zn  Zn7  1  0.89420212  0.10579788  0.89420212  1
  Zn  Zn8  1  0.00000000  0.00000000  0.35665915  1
  Zn  Zn9  1  0.64334085  0.00000000  0.00000000  1
  Zn  Zn10  1  0.35665915  0.00000000  0.00000000  1
  Zn  Zn11  1  0.00000000  0.35665915  0.00000000  1
  Zn  Zn12  1  0.00000000  0.64334085  0.00000000  1
  Zn  Zn13  1  0.00000000  0.00000000  0.64334085  1
  Zn  Zn14  1  0.30880227  0.04205590  0.30880227  1
  Zn  Zn15  1  0.69119773  0.95794410  0.30880227  1
  Zn  Zn16  1  0.30880227  0.95794410  0.69119773  1
  Zn  Zn17  1  0.69119773  0.30880227  0.95794410  1
  Zn  Zn18  1  0.19119773  0.19119773  0.54205590  1
  Zn  Zn19  1  0.54205590  0.19119773  0.19119773  1
  Zn  Zn20  1  0.95794410  0.30880227  0.69119773  1
  Zn  Zn21  1  0.95794410  0.69119773  0.30880227  1
  Zn  Zn22  1  0.69119773  0.04205590  0.69119773  1
  Zn  Zn23  1  0.54205590  0.80880227  0.80880227  1
  Zn  Zn24  1  0.80880227  0.80880227  0.54205590  1
  Zn  Zn25  1  0.80880227  0.19119773  0.45794410  1
  Zn  Zn26  1  0.60579788  0.60579788  0.60579788  1
  Zn  Zn27  1  0.89420212  0.89420212  0.10579788  1
  Zn  Zn28  1  0.60579788  0.39420212  0.39420212  1
  Zn  Zn29  1  0.39420212  0.60579788  0.39420212  1
  Zn  Zn30  1  0.50000000  0.50000000  0.85665915  1
  Zn  Zn31  1  0.14334085  0.50000000  0.50000000  1
  Zn  Zn32  1  0.85665915  0.50000000  0.50000000  1
  Zn  Zn33  1  0.50000000  0.85665915  0.50000000  1
  Zn  Zn34  1  0.50000000  0.14334085  0.50000000  1
  Zn  Zn35  1  0.50000000  0.50000000  0.14334085  1
  Zn  Zn36  1  0.80880227  0.54205590  0.80880227  1
  Zn  Zn37  1  0.19119773  0.45794410  0.80880227  1
  Zn  Zn38  1  0.80880227  0.45794410  0.19119773  1
  Zn  Zn39  1  0.19119773  0.80880227  0.45794410  1
  Zn  Zn40  1  0.69119773  0.69119773  0.04205590  1
  Zn  Zn41  1  0.04205590  0.69119773  0.69119773  1
  Zn  Zn42  1  0.45794410  0.80880227  0.19119773  1
  Zn  Zn43  1  0.45794410  0.19119773  0.80880227  1
  Ir  Ir44  1  0.17317533  0.82682467  0.17317533  1
  Ir  Ir45  1  0.82682467  0.17317533  0.17317533  1
  Ir  Ir46  1  0.17317533  0.17317533  0.82682467  1
  Ir  Ir47  1  0.32682467  0.32682467  0.32682467  1
  Ir  Ir48  1  0.67317533  0.32682467  0.67317533  1
  Ir  Ir49  1  0.32682467  0.67317533  0.67317533  1
  Ir  Ir50  1  0.67317533  0.67317533  0.32682467  1
  Ir  Ir51  1  0.82682467  0.82682467  0.82682467  1
