# generated using pymatgen
data_Ca5Au2
_symmetry_space_group_name_H-M   'P 1'
_cell_length_a   6.91005982
_cell_length_b   7.72789579
_cell_length_c   9.08817485
_cell_angle_alpha   97.06608303
_cell_angle_beta   112.24347923
_cell_angle_gamma   89.91623945
_symmetry_Int_Tables_number   1
_chemical_formula_structural   Ca5Au2
_chemical_formula_sum   'Ca10 Au4'
_cell_volume   445.24606520
_cell_formula_units_Z   2
loop_
 _symmetry_equiv_pos_site_id
 _symmetry_equiv_pos_as_xyz
  1  'x, y, z'
loop_
 _atom_site_type_symbol
 _atom_site_label
 _atom_site_symmetry_multiplicity
 _atom_site_fract_x
 _atom_site_fract_y
 _atom_site_fract_z
 _atom_site_occupancy
  Ca  Ca0  1  0.63658764  0.81514465  0.43585266  1
  Ca  Ca1  1  0.20082729  0.68482799  0.56406715  1
  Ca  Ca2  1  0.36341236  0.18485535  0.56414734  1
  Ca  Ca3  1  0.79917271  0.31517201  0.43593285  1
  Ca  Ca4  1  0.57476425  0.24997081  0.99997024  1
  Ca  Ca5  1  0.42523575  0.75002919  0.00002976  1
  Ca  Ca6  1  0.19735729  0.42110675  0.18180840  1
  Ca  Ca7  1  0.01534315  0.07893686  0.81801092  1
  Ca  Ca8  1  0.80264271  0.57889325  0.81819160  1
  Ca  Ca9  1  0.98465685  0.92106314  0.18198908  1
  Au  Au10  1  0.81904353  0.58142860  0.22163737  1
  Au  Au11  1  0.59730822  0.91841208  0.77837165  1
  Au  Au12  1  0.18095647  0.41857140  0.77836263  1
  Au  Au13  1  0.40269178  0.08158792  0.22162835  1
