# generated using pymatgen
data_Hg2GeSe4
_symmetry_space_group_name_H-M   'P 1'
_cell_length_a   5.77009084
_cell_length_b   5.77009084
_cell_length_c   11.45205540
_cell_angle_alpha   90.00000000
_cell_angle_beta   90.00000000
_cell_angle_gamma   90.00000000
_symmetry_Int_Tables_number   1
_chemical_formula_structural   Hg2GeSe4
_chemical_formula_sum   'Hg4 Ge2 Se8'
_cell_volume   381.28414062
_cell_formula_units_Z   2
loop_
 _symmetry_equiv_pos_site_id
 _symmetry_equiv_pos_as_xyz
  1  'x, y, z'
loop_
 _atom_site_type_symbol
 _atom_site_label
 _atom_site_symmetry_multiplicity
 _atom_site_fract_x
 _atom_site_fract_y
 _atom_site_fract_z
 _atom_site_occupancy
  Hg  Hg0  1  0.50000000  0.50000000  0.00000000  1
  Hg  Hg1  1  0.50000000  0.00000000  0.25000000  1
  Hg  Hg2  1  0.00000000  0.00000000  0.50000000  1
  Hg  Hg3  1  0.00000000  0.50000000  0.75000000  1
  Ge  Ge4  1  0.00000000  0.50000000  0.25000000  1
  Ge  Ge5  1  0.50000000  0.00000000  0.75000000  1
  Se  Se6  1  0.74287470  0.69307306  0.38021024  1
  Se  Se7  1  0.19307306  0.75712530  0.11978976  1
  Se  Se8  1  0.25712530  0.30692694  0.38021024  1
  Se  Se9  1  0.80692694  0.24287470  0.11978976  1
  Se  Se10  1  0.24287470  0.19307306  0.88021024  1
  Se  Se11  1  0.69307306  0.25712530  0.61978976  1
  Se  Se12  1  0.75712530  0.80692694  0.88021024  1
  Se  Se13  1  0.30692694  0.74287470  0.61978976  1
