# generated using pymatgen
data_Cd(GaSe2)2
_symmetry_space_group_name_H-M   'P 1'
_cell_length_a   5.80225767
_cell_length_b   5.80225767
_cell_length_c   10.84573927
_cell_angle_alpha   90.00000000
_cell_angle_beta   90.00000000
_cell_angle_gamma   90.00000000
_symmetry_Int_Tables_number   1
_chemical_formula_structural   Cd(GaSe2)2
_chemical_formula_sum   'Cd2 Ga4 Se8'
_cell_volume   365.13476276
_cell_formula_units_Z   2
loop_
 _symmetry_equiv_pos_site_id
 _symmetry_equiv_pos_as_xyz
  1  'x, y, z'
loop_
 _atom_site_type_symbol
 _atom_site_label
 _atom_site_symmetry_multiplicity
 _atom_site_fract_x
 _atom_site_fract_y
 _atom_site_fract_z
 _atom_site_occupancy
  Cd  Cd0  1  0.00000000  0.00000000  0.00000000  1
  Cd  Cd1  1  0.50000000  0.50000000  0.50000000  1
  Ga  Ga2  1  0.50000000  0.00000000  0.25000000  1
  Ga  Ga3  1  0.50000000  0.50000000  0.00000000  1
  Ga  Ga4  1  0.00000000  0.50000000  0.75000000  1
  Ga  Ga5  1  0.00000000  0.00000000  0.50000000  1
  Se  Se6  1  0.26248521  0.72718112  0.13793950  1
  Se  Se7  1  0.73751479  0.27281888  0.13793950  1
  Se  Se8  1  0.77281888  0.76248521  0.36206050  1
  Se  Se9  1  0.22718112  0.23751479  0.36206050  1
  Se  Se10  1  0.76248521  0.22718112  0.63793950  1
  Se  Se11  1  0.23751480  0.77281888  0.63793950  1
  Se  Se12  1  0.27281888  0.26248520  0.86206050  1
  Se  Se13  1  0.72718112  0.73751479  0.86206050  1
