# generated using pymatgen
data_SnAu5
_symmetry_space_group_name_H-M   'P 1'
_cell_length_a   5.10147391
_cell_length_b   5.10147391
_cell_length_c   14.74083084
_cell_angle_alpha   90.00000000
_cell_angle_beta   90.00000000
_cell_angle_gamma   120.00000000
_symmetry_Int_Tables_number   1
_chemical_formula_structural   SnAu5
_chemical_formula_sum   'Sn3 Au15'
_cell_volume   332.23389217
_cell_formula_units_Z   3
loop_
 _symmetry_equiv_pos_site_id
 _symmetry_equiv_pos_as_xyz
  1  'x, y, z'
loop_
 _atom_site_type_symbol
 _atom_site_label
 _atom_site_symmetry_multiplicity
 _atom_site_fract_x
 _atom_site_fract_y
 _atom_site_fract_z
 _atom_site_occupancy
  Sn  Sn0  1  0.00000000  0.00000000  0.00000000  1
  Sn  Sn1  1  0.66666667  0.33333333  0.33333333  1
  Sn  Sn2  1  0.33333333  0.66666667  0.66666667  1
  Au  Au3  1  0.66666667  0.33333333  0.00348048  1
  Au  Au4  1  0.33333333  0.33742734  0.16666667  1
  Au  Au5  1  0.66257266  0.99590600  0.16666667  1
  Au  Au6  1  0.00409400  0.66666667  0.16666667  1
  Au  Au7  1  0.00000000  0.00000000  0.32985285  1
  Au  Au8  1  0.33333333  0.66666667  0.33681382  1
  Au  Au9  1  0.00000000  0.67076067  0.50000000  1
  Au  Au10  1  0.32923933  0.32923933  0.50000000  1
  Au  Au11  1  0.67076067  0.00000000  0.50000000  1
  Au  Au12  1  0.66666667  0.33333333  0.66318618  1
  Au  Au13  1  0.00000000  0.00000000  0.67014715  1
  Au  Au14  1  0.66666667  0.00409400  0.83333333  1
  Au  Au15  1  0.99590600  0.66257266  0.83333333  1
  Au  Au16  1  0.33742734  0.33333333  0.83333333  1
  Au  Au17  1  0.33333333  0.66666667  0.99651952  1
