# generated using pymatgen
data_Zn12Pt7
_symmetry_space_group_name_H-M   'P 1'
_cell_length_a   2.77752545
_cell_length_b   6.98074215
_cell_length_c   28.77905897
_cell_angle_alpha   90.00000000
_cell_angle_beta   90.00000000
_cell_angle_gamma   90.00000000
_symmetry_Int_Tables_number   1
_chemical_formula_structural   Zn12Pt7
_chemical_formula_sum   'Zn24 Pt14'
_cell_volume   558.00261331
_cell_formula_units_Z   2
loop_
 _symmetry_equiv_pos_site_id
 _symmetry_equiv_pos_as_xyz
  1  'x, y, z'
loop_
 _atom_site_type_symbol
 _atom_site_label
 _atom_site_symmetry_multiplicity
 _atom_site_fract_x
 _atom_site_fract_y
 _atom_site_fract_z
 _atom_site_occupancy
  Zn  Zn0  1  0.50000000  0.37620825  0.42862607  1
  Zn  Zn1  1  0.50000000  0.62379175  0.57137393  1
  Zn  Zn2  1  0.50000000  0.87620825  0.07137393  1
  Zn  Zn3  1  0.50000000  0.12379175  0.92862607  1
  Zn  Zn4  1  0.50000000  0.36211789  0.28388063  1
  Zn  Zn5  1  0.50000000  0.63788211  0.71611937  1
  Zn  Zn6  1  0.50000000  0.86211789  0.21611937  1
  Zn  Zn7  1  0.50000000  0.13788211  0.78388063  1
  Zn  Zn8  1  0.50000000  0.31701732  0.00782184  1
  Zn  Zn9  1  0.50000000  0.68298268  0.99217816  1
  Zn  Zn10  1  0.50000000  0.81701732  0.49217816  1
  Zn  Zn11  1  0.50000000  0.18298268  0.50782184  1
  Zn  Zn12  1  0.50000000  0.13158745  0.35676240  1
  Zn  Zn13  1  0.50000000  0.86841255  0.64323760  1
  Zn  Zn14  1  0.50000000  0.24561907  0.60082962  1
  Zn  Zn15  1  0.50000000  0.75438093  0.39917038  1
  Zn  Zn16  1  0.50000000  0.74561907  0.89917038  1
  Zn  Zn17  1  0.50000000  0.25438093  0.10082962  1
  Zn  Zn18  1  0.50000000  0.26958579  0.69919434  1
  Zn  Zn19  1  0.50000000  0.73041421  0.30080566  1
  Zn  Zn20  1  0.50000000  0.76958579  0.80080566  1
  Zn  Zn21  1  0.50000000  0.23041421  0.19919434  1
  Zn  Zn22  1  0.50000000  0.36841255  0.85676240  1
  Zn  Zn23  1  0.50000000  0.63158745  0.14323760  1
  Pt  Pt24  1  0.00000000  0.03721483  0.43264693  1
  Pt  Pt25  1  0.00000000  0.96278517  0.56735307  1
  Pt  Pt26  1  0.00000000  0.53721483  0.06735307  1
  Pt  Pt27  1  0.00000000  0.46278517  0.93264693  1
  Pt  Pt28  1  0.00000000  0.04081600  0.28098294  1
  Pt  Pt29  1  0.00000000  0.95918400  0.71901706  1
  Pt  Pt30  1  0.00000000  0.54081600  0.21901706  1
  Pt  Pt31  1  0.00000000  0.45918400  0.78098294  1
  Pt  Pt32  1  0.00000000  0.99563347  0.14424768  1
  Pt  Pt33  1  0.00000000  0.00436653  0.85575232  1
  Pt  Pt34  1  0.00000000  0.49563347  0.35575232  1
  Pt  Pt35  1  0.00000000  0.50436653  0.64424768  1
  Pt  Pt36  1  0.00000000  0.00000000  0.00000000  1
  Pt  Pt37  1  0.00000000  0.50000000  0.50000000  1
