# generated using pymatgen
data_Sc3Ga2
_symmetry_space_group_name_H-M   'P 1'
_cell_length_a   10.83528079
_cell_length_b   10.83528079
_cell_length_c   13.90715217
_cell_angle_alpha   90.00000000
_cell_angle_beta   90.00000000
_cell_angle_gamma   90.00000000
_symmetry_Int_Tables_number   1
_chemical_formula_structural   Sc3Ga2
_chemical_formula_sum   'Sc48 Ga32'
_cell_volume   1632.74569610
_cell_formula_units_Z   16
loop_
 _symmetry_equiv_pos_site_id
 _symmetry_equiv_pos_as_xyz
  1  'x, y, z'
loop_
 _atom_site_type_symbol
 _atom_site_label
 _atom_site_symmetry_multiplicity
 _atom_site_fract_x
 _atom_site_fract_y
 _atom_site_fract_z
 _atom_site_occupancy
  Sc  Sc0  1  0.43357732  0.29622837  0.13604612  1
  Sc  Sc1  1  0.06642268  0.20377163  0.63604612  1
  Sc  Sc2  1  0.70377163  0.56642268  0.36395388  1
  Sc  Sc3  1  0.29622837  0.56642268  0.13604612  1
  Sc  Sc4  1  0.20377163  0.93357732  0.63604612  1
  Sc  Sc5  1  0.43357732  0.70377163  0.36395388  1
  Sc  Sc6  1  0.56642268  0.29622837  0.36395388  1
  Sc  Sc7  1  0.29622837  0.43357732  0.36395388  1
  Sc  Sc8  1  0.06642268  0.20377163  0.36395388  1
  Sc  Sc9  1  0.43357732  0.29622837  0.86395388  1
  Sc  Sc10  1  0.79622837  0.93357732  0.13604612  1
  Sc  Sc11  1  0.20377163  0.93357732  0.36395388  1
  Sc  Sc12  1  0.29622837  0.56642268  0.86395388  1
  Sc  Sc13  1  0.06642268  0.79622837  0.13604612  1
  Sc  Sc14  1  0.93357732  0.20377163  0.13604612  1
  Sc  Sc15  1  0.20377163  0.06642268  0.13604612  1
  Sc  Sc16  1  0.00000000  0.50000000  0.14691829  1
  Sc  Sc17  1  0.50000000  0.00000000  0.14691829  1
  Sc  Sc18  1  0.00000000  0.50000000  0.35308171  1
  Sc  Sc19  1  0.50000000  0.00000000  0.35308171  1
  Sc  Sc20  1  0.66963887  0.16963887  0.00000000  1
  Sc  Sc21  1  0.33036113  0.16963887  0.50000000  1
  Sc  Sc22  1  0.16963887  0.33036113  0.00000000  1
  Sc  Sc23  1  0.83036113  0.33036113  0.50000000  1
  Sc  Sc24  1  0.93357732  0.79622837  0.63604612  1
  Sc  Sc25  1  0.56642268  0.70377163  0.13604612  1
  Sc  Sc26  1  0.20377162  0.06642268  0.86395388  1
  Sc  Sc27  1  0.79622837  0.06642268  0.63604612  1
  Sc  Sc28  1  0.70377163  0.43357732  0.13604612  1
  Sc  Sc29  1  0.93357732  0.20377162  0.86395388  1
  Sc  Sc30  1  0.06642268  0.79622837  0.86395388  1
  Sc  Sc31  1  0.79622837  0.93357732  0.86395388  1
  Sc  Sc32  1  0.56642268  0.70377163  0.86395388  1
  Sc  Sc33  1  0.93357732  0.79622837  0.36395388  1
  Sc  Sc34  1  0.29622838  0.43357732  0.63604612  1
  Sc  Sc35  1  0.70377163  0.43357732  0.86395388  1
  Sc  Sc36  1  0.79622837  0.06642268  0.36395388  1
  Sc  Sc37  1  0.56642268  0.29622838  0.63604612  1
  Sc  Sc38  1  0.43357732  0.70377163  0.63604612  1
  Sc  Sc39  1  0.70377163  0.56642268  0.63604612  1
  Sc  Sc40  1  0.50000000  0.00000000  0.64691829  1
  Sc  Sc41  1  0.00000000  0.50000000  0.64691829  1
  Sc  Sc42  1  0.50000000  0.00000000  0.85308171  1
  Sc  Sc43  1  0.00000000  0.50000000  0.85308171  1
  Sc  Sc44  1  0.16963887  0.66963887  0.50000000  1
  Sc  Sc45  1  0.83036113  0.66963887  0.00000000  1
  Sc  Sc46  1  0.66963887  0.83036113  0.50000000  1
  Sc  Sc47  1  0.33036113  0.83036113  0.00000000  1
  Ga  Ga48  1  0.67676597  0.17676597  0.19978157  1
  Ga  Ga49  1  0.32323403  0.82323403  0.19978157  1
  Ga  Ga50  1  0.82323403  0.32323403  0.30021843  1
  Ga  Ga51  1  0.17676597  0.32323403  0.19978157  1
  Ga  Ga52  1  0.82323403  0.67676597  0.19978157  1
  Ga  Ga53  1  0.67676597  0.82323403  0.30021843  1
  Ga  Ga54  1  0.32323403  0.17676597  0.30021843  1
  Ga  Ga55  1  0.17676597  0.67676597  0.30021843  1
  Ga  Ga56  1  0.38176544  0.88176544  0.50000000  1
  Ga  Ga57  1  0.11823456  0.38176544  0.50000000  1
  Ga  Ga58  1  0.38176544  0.11823456  0.00000000  1
  Ga  Ga59  1  0.11823456  0.61823456  0.00000000  1
  Ga  Ga60  1  0.00000000  0.00000000  0.50000000  1
  Ga  Ga61  1  0.00000000  0.00000000  0.00000000  1
  Ga  Ga62  1  0.00000000  0.00000000  0.75000000  1
  Ga  Ga63  1  0.00000000  0.00000000  0.25000000  1
  Ga  Ga64  1  0.17676597  0.67676597  0.69978157  1
  Ga  Ga65  1  0.82323403  0.32323403  0.69978157  1
  Ga  Ga66  1  0.32323403  0.82323403  0.80021843  1
  Ga  Ga67  1  0.67676597  0.82323403  0.69978157  1
  Ga  Ga68  1  0.32323403  0.17676597  0.69978157  1
  Ga  Ga69  1  0.17676597  0.32323403  0.80021843  1
  Ga  Ga70  1  0.82323403  0.67676597  0.80021843  1
  Ga  Ga71  1  0.67676597  0.17676597  0.80021843  1
  Ga  Ga72  1  0.88176544  0.38176545  0.00000000  1
  Ga  Ga73  1  0.61823456  0.88176544  0.00000000  1
  Ga  Ga74  1  0.88176544  0.61823456  0.50000000  1
  Ga  Ga75  1  0.61823456  0.11823455  0.50000000  1
  Ga  Ga76  1  0.50000000  0.50000000  0.00000000  1
  Ga  Ga77  1  0.50000000  0.50000000  0.50000000  1
  Ga  Ga78  1  0.50000000  0.50000000  0.25000000  1
  Ga  Ga79  1  0.50000000  0.50000000  0.75000000  1
