# generated using pymatgen
data_Hf4N3
_symmetry_space_group_name_H-M   'P 1'
_cell_length_a   4.50034263
_cell_length_b   4.50034263
_cell_length_c   9.07502282
_cell_angle_alpha   90.00000000
_cell_angle_beta   90.00000000
_cell_angle_gamma   90.00000000
_symmetry_Int_Tables_number   1
_chemical_formula_structural   Hf4N3
_chemical_formula_sum   'Hf8 N6'
_cell_volume   183.79719713
_cell_formula_units_Z   2
loop_
 _symmetry_equiv_pos_site_id
 _symmetry_equiv_pos_as_xyz
  1  'x, y, z'
loop_
 _atom_site_type_symbol
 _atom_site_label
 _atom_site_symmetry_multiplicity
 _atom_site_fract_x
 _atom_site_fract_y
 _atom_site_fract_z
 _atom_site_occupancy
  Hf  Hf0  1  0.50000000  0.50000000  0.76016331  1
  Hf  Hf1  1  0.00000000  0.50000000  0.00000000  1
  Hf  Hf2  1  0.50000000  0.00000000  0.00000000  1
  Hf  Hf3  1  0.50000000  0.50000000  0.23983669  1
  Hf  Hf4  1  0.00000000  0.00000000  0.26016331  1
  Hf  Hf5  1  0.50000000  0.00000000  0.50000000  1
  Hf  Hf6  1  0.00000000  0.50000000  0.50000000  1
  Hf  Hf7  1  0.00000000  0.00000000  0.73983669  1
  N  N8  1  0.00000000  0.50000000  0.25000000  1
  N  N9  1  0.50000000  0.00000000  0.25000000  1
  N  N10  1  0.50000000  0.50000000  0.00000000  1
  N  N11  1  0.50000000  0.00000000  0.75000000  1
  N  N12  1  0.00000000  0.50000000  0.75000000  1
  N  N13  1  0.00000000  0.00000000  0.50000000  1
