# generated using pymatgen
data_Ca5Ag3
_symmetry_space_group_name_H-M   'P 1'
_cell_length_a   7.96323470
_cell_length_b   7.96323470
_cell_length_c   14.98116829
_cell_angle_alpha   90.00000000
_cell_angle_beta   90.00000000
_cell_angle_gamma   90.00000000
_symmetry_Int_Tables_number   1
_chemical_formula_structural   Ca5Ag3
_chemical_formula_sum   'Ca20 Ag12'
_cell_volume   950.00242705
_cell_formula_units_Z   4
loop_
 _symmetry_equiv_pos_site_id
 _symmetry_equiv_pos_as_xyz
  1  'x, y, z'
loop_
 _atom_site_type_symbol
 _atom_site_label
 _atom_site_symmetry_multiplicity
 _atom_site_fract_x
 _atom_site_fract_y
 _atom_site_fract_z
 _atom_site_occupancy
  Ca  Ca0  1  0.00000000  0.00000000  0.00000000  1
  Ca  Ca1  1  0.50000000  0.50000000  0.00000000  1
  Ca  Ca2  1  0.16975669  0.66975670  0.14499392  1
  Ca  Ca3  1  0.33024330  0.16975669  0.14499392  1
  Ca  Ca4  1  0.66975670  0.83024330  0.14499392  1
  Ca  Ca5  1  0.16975669  0.33024330  0.35500608  1
  Ca  Ca6  1  0.83024330  0.66975670  0.35500608  1
  Ca  Ca7  1  0.66975670  0.16975669  0.35500608  1
  Ca  Ca8  1  0.33024330  0.83024330  0.35500608  1
  Ca  Ca9  1  0.83024330  0.33024330  0.14499392  1
  Ca  Ca10  1  0.50000000  0.50000000  0.50000000  1
  Ca  Ca11  1  0.00000000  0.00000000  0.50000000  1
  Ca  Ca12  1  0.66975670  0.16975670  0.64499392  1
  Ca  Ca13  1  0.83024330  0.66975670  0.64499392  1
  Ca  Ca14  1  0.16975670  0.33024330  0.64499392  1
  Ca  Ca15  1  0.66975670  0.83024330  0.85500608  1
  Ca  Ca16  1  0.33024330  0.16975670  0.85500608  1
  Ca  Ca17  1  0.16975670  0.66975670  0.85500608  1
  Ca  Ca18  1  0.83024330  0.33024330  0.85500608  1
  Ca  Ca19  1  0.33024330  0.83024330  0.64499392  1
  Ag  Ag20  1  0.00000000  0.00000000  0.25000000  1
  Ag  Ag21  1  0.50000000  0.50000000  0.25000000  1
  Ag  Ag22  1  0.37533832  0.87533832  0.00000000  1
  Ag  Ag23  1  0.12466168  0.37533832  0.00000000  1
  Ag  Ag24  1  0.87533832  0.62466168  0.00000000  1
  Ag  Ag25  1  0.62466168  0.12466168  0.00000000  1
  Ag  Ag26  1  0.50000000  0.50000000  0.75000000  1
  Ag  Ag27  1  0.00000000  0.00000000  0.75000000  1
  Ag  Ag28  1  0.87533832  0.37533832  0.50000000  1
  Ag  Ag29  1  0.62466168  0.87533832  0.50000000  1
  Ag  Ag30  1  0.37533832  0.12466168  0.50000000  1
  Ag  Ag31  1  0.12466168  0.62466168  0.50000000  1
