# generated using pymatgen
data_TlGaS2
_symmetry_space_group_name_H-M   'P 1'
_cell_length_a   10.36516046
_cell_length_b   10.36802496
_cell_length_c   15.23748108
_cell_angle_alpha   90.00000000
_cell_angle_beta   99.85704843
_cell_angle_gamma   90.00000000
_symmetry_Int_Tables_number   1
_chemical_formula_structural   TlGaS2
_chemical_formula_sum   'Tl16 Ga16 S32'
_cell_volume   1613.34173527
_cell_formula_units_Z   16
loop_
 _symmetry_equiv_pos_site_id
 _symmetry_equiv_pos_as_xyz
  1  'x, y, z'
loop_
 _atom_site_type_symbol
 _atom_site_label
 _atom_site_symmetry_multiplicity
 _atom_site_fract_x
 _atom_site_fract_y
 _atom_site_fract_z
 _atom_site_occupancy
  Tl  Tl0  1  0.21583409  0.93869366  0.11563261  1
  Tl  Tl1  1  0.78416591  0.93869366  0.38436739  1
  Tl  Tl2  1  0.78416591  0.06130634  0.88436739  1
  Tl  Tl3  1  0.21583409  0.06130634  0.61563261  1
  Tl  Tl4  1  0.46347580  0.81174794  0.60952067  1
  Tl  Tl5  1  0.53652420  0.81174794  0.89047933  1
  Tl  Tl6  1  0.53652420  0.18825206  0.39047933  1
  Tl  Tl7  1  0.46347580  0.18825206  0.10952067  1
  Tl  Tl8  1  0.71583409  0.43869366  0.11563261  1
  Tl  Tl9  1  0.28416591  0.43869366  0.38436739  1
  Tl  Tl10  1  0.28416591  0.56130634  0.88436739  1
  Tl  Tl11  1  0.71583409  0.56130634  0.61563261  1
  Tl  Tl12  1  0.96347580  0.31174794  0.60952067  1
  Tl  Tl13  1  0.03652420  0.31174794  0.89047933  1
  Tl  Tl14  1  0.03652420  0.68825206  0.39047933  1
  Tl  Tl15  1  0.96347580  0.68825206  0.10952067  1
  Ga  Ga16  1  0.39799911  0.18881996  0.83639411  1
  Ga  Ga17  1  0.85492707  0.93557777  0.66246653  1
  Ga  Ga18  1  0.85492707  0.06442223  0.16246653  1
  Ga  Ga19  1  0.14507293  0.06442223  0.33753347  1
  Ga  Ga20  1  0.39799911  0.81118004  0.33639411  1
  Ga  Ga21  1  0.60200089  0.81118004  0.16360589  1
  Ga  Ga22  1  0.60200089  0.18881996  0.66360589  1
  Ga  Ga23  1  0.14507293  0.93557777  0.83753347  1
  Ga  Ga24  1  0.89799911  0.68881996  0.83639411  1
  Ga  Ga25  1  0.35492707  0.43557777  0.66246653  1
  Ga  Ga26  1  0.35492707  0.56442223  0.16246653  1
  Ga  Ga27  1  0.64507293  0.56442223  0.33753347  1
  Ga  Ga28  1  0.89799911  0.31118004  0.33639411  1
  Ga  Ga29  1  0.10200089  0.31118004  0.16360589  1
  Ga  Ga30  1  0.10200089  0.68881996  0.66360589  1
  Ga  Ga31  1  0.64507293  0.43557777  0.83753347  1
  S  S32  1  0.45665696  0.68728884  0.07078395  1
  S  S33  1  0.54334304  0.68728884  0.42921605  1
  S  S34  1  0.54334304  0.31271116  0.92921605  1
  S  S35  1  0.45665696  0.31271116  0.57078395  1
  S  S36  1  0.25586347  0.81177937  0.75128696  1
  S  S37  1  0.74413653  0.81177937  0.74871304  1
  S  S38  1  0.74413653  0.18822063  0.24871304  1
  S  S39  1  0.25586347  0.18822063  0.25128696  1
  S  S40  1  0.70680198  0.06374301  0.57427870  1
  S  S41  1  0.29319802  0.06374301  0.92572130  1
  S  S42  1  0.29319802  0.93625699  0.42572130  1
  S  S43  1  0.50000000  0.43248739  0.25000000  1
  S  S44  1  0.50000000  0.05650770  0.75000000  1
  S  S45  1  0.50000000  0.94349230  0.25000000  1
  S  S46  1  0.50000000  0.56751261  0.75000000  1
  S  S47  1  0.70680198  0.93625699  0.07427870  1
  S  S48  1  0.95665696  0.18728884  0.07078395  1
  S  S49  1  0.04334304  0.18728884  0.42921605  1
  S  S50  1  0.04334304  0.81271116  0.92921605  1
  S  S51  1  0.95665696  0.81271116  0.57078395  1
  S  S52  1  0.75586347  0.31177937  0.75128696  1
  S  S53  1  0.24413653  0.31177937  0.74871304  1
  S  S54  1  0.24413653  0.68822063  0.24871304  1
  S  S55  1  0.75586347  0.68822063  0.25128696  1
  S  S56  1  0.20680198  0.56374301  0.57427870  1
  S  S57  1  0.79319802  0.56374301  0.92572130  1
  S  S58  1  0.79319802  0.43625699  0.42572130  1
  S  S59  1  0.00000000  0.93248739  0.25000000  1
  S  S60  1  0.00000000  0.55650770  0.75000000  1
  S  S61  1  0.00000000  0.44349230  0.25000000  1
  S  S62  1  0.00000000  0.06751261  0.75000000  1
  S  S63  1  0.20680198  0.43625699  0.07427870  1
