# generated using pymatgen
data_NaSi2Pd3
_symmetry_space_group_name_H-M   'P 1'
_cell_length_a   5.70868994
_cell_length_b   7.05404393
_cell_length_c   9.76658019
_cell_angle_alpha   90.00000000
_cell_angle_beta   90.00000000
_cell_angle_gamma   90.00000000
_symmetry_Int_Tables_number   1
_chemical_formula_structural   NaSi2Pd3
_chemical_formula_sum   'Na4 Si8 Pd12'
_cell_volume   393.29383248
_cell_formula_units_Z   4
loop_
 _symmetry_equiv_pos_site_id
 _symmetry_equiv_pos_as_xyz
  1  'x, y, z'
loop_
 _atom_site_type_symbol
 _atom_site_label
 _atom_site_symmetry_multiplicity
 _atom_site_fract_x
 _atom_site_fract_y
 _atom_site_fract_z
 _atom_site_occupancy
  Na  Na0  1  0.04514544  0.00000000  0.00000000  1
  Na  Na1  1  0.98156118  0.50000000  0.00000000  1
  Na  Na2  1  0.54514544  0.50000000  0.50000000  1
  Na  Na3  1  0.48156118  0.00000000  0.50000000  1
  Si  Si4  1  0.42709658  0.50000000  0.80989044  1
  Si  Si5  1  0.06095565  0.50000000  0.34389576  1
  Si  Si6  1  0.42709658  0.50000000  0.19010956  1
  Si  Si7  1  0.06095565  0.50000000  0.65610424  1
  Si  Si8  1  0.92709658  0.00000000  0.30989044  1
  Si  Si9  1  0.56095565  0.00000000  0.84389576  1
  Si  Si10  1  0.92709658  0.00000000  0.69010956  1
  Si  Si11  1  0.56095565  0.00000000  0.15610424  1
  Pd  Pd12  1  0.75397939  0.29928003  0.24943594  1
  Pd  Pd13  1  0.75397939  0.70071997  0.24943594  1
  Pd  Pd14  1  0.75397939  0.70071997  0.75056406  1
  Pd  Pd15  1  0.49813419  0.28292233  0.00000000  1
  Pd  Pd16  1  0.49813419  0.71707767  0.00000000  1
  Pd  Pd17  1  0.75397939  0.29928003  0.75056406  1
  Pd  Pd18  1  0.25397939  0.79928003  0.74943594  1
  Pd  Pd19  1  0.25397939  0.20071997  0.74943594  1
  Pd  Pd20  1  0.25397939  0.20071997  0.25056406  1
  Pd  Pd21  1  0.99813419  0.78292233  0.50000000  1
  Pd  Pd22  1  0.99813419  0.21707767  0.50000000  1
  Pd  Pd23  1  0.25397939  0.79928003  0.25056406  1
