# generated using pymatgen
data_Ga2HgS4
_symmetry_space_group_name_H-M   'P 1'
_cell_length_a   5.58218961
_cell_length_b   5.58218961
_cell_length_c   10.29338885
_cell_angle_alpha   90.00000000
_cell_angle_beta   90.00000000
_cell_angle_gamma   90.00000000
_symmetry_Int_Tables_number   1
_chemical_formula_structural   Ga2HgS4
_chemical_formula_sum   'Ga4 Hg2 S8'
_cell_volume   320.75065122
_cell_formula_units_Z   2
loop_
 _symmetry_equiv_pos_site_id
 _symmetry_equiv_pos_as_xyz
  1  'x, y, z'
loop_
 _atom_site_type_symbol
 _atom_site_label
 _atom_site_symmetry_multiplicity
 _atom_site_fract_x
 _atom_site_fract_y
 _atom_site_fract_z
 _atom_site_occupancy
  Ga  Ga0  1  0.50000000  0.00000000  0.25000000  1
  Ga  Ga1  1  0.50000000  0.50000000  0.00000000  1
  Ga  Ga2  1  0.00000000  0.50000000  0.75000000  1
  Ga  Ga3  1  0.00000000  0.00000000  0.50000000  1
  Hg  Hg4  1  0.00000000  0.00000000  0.00000000  1
  Hg  Hg5  1  0.50000000  0.50000000  0.50000000  1
  S  S6  1  0.27329187  0.73023883  0.13662576  1
  S  S7  1  0.23023883  0.22670813  0.36337423  1
  S  S8  1  0.76976117  0.77329187  0.36337423  1
  S  S9  1  0.72670813  0.26976117  0.13662576  1
  S  S10  1  0.77329187  0.23023883  0.63662577  1
  S  S11  1  0.73023883  0.72670813  0.86337423  1
  S  S12  1  0.26976117  0.27329187  0.86337423  1
  S  S13  1  0.22670813  0.76976117  0.63662577  1
