# generated using pymatgen
data_TlIn3S5
_symmetry_space_group_name_H-M   'P 1'
_cell_length_a   20.53557392
_cell_length_b   3.86118772
_cell_length_c   12.92211575
_cell_angle_alpha   90.00000000
_cell_angle_beta   121.42611158
_cell_angle_gamma   90.00000000
_symmetry_Int_Tables_number   1
_chemical_formula_structural   TlIn3S5
_chemical_formula_sum   'Tl4 In12 S20'
_cell_volume   874.31893964
_cell_formula_units_Z   4
loop_
 _symmetry_equiv_pos_site_id
 _symmetry_equiv_pos_as_xyz
  1  'x, y, z'
loop_
 _atom_site_type_symbol
 _atom_site_label
 _atom_site_symmetry_multiplicity
 _atom_site_fract_x
 _atom_site_fract_y
 _atom_site_fract_z
 _atom_site_occupancy
  Tl  Tl0  1  0.76216880  0.00000000  0.19945877  1
  Tl  Tl1  1  0.23783120  0.00000000  0.80054123  1
  Tl  Tl2  1  0.26216880  0.50000000  0.19945877  1
  Tl  Tl3  1  0.73783120  0.50000000  0.80054123  1
  In  In4  1  0.16277304  0.50000000  0.40161112  1
  In  In5  1  0.95304811  0.50000000  0.19459940  1
  In  In6  1  0.04695189  0.50000000  0.80540060  1
  In  In7  1  0.83722696  0.50000000  0.59838888  1
  In  In8  1  0.00000000  0.00000000  0.50000000  1
  In  In9  1  0.00000000  0.00000000  0.00000000  1
  In  In10  1  0.66277304  0.00000000  0.40161112  1
  In  In11  1  0.45304811  0.00000000  0.19459940  1
  In  In12  1  0.54695189  0.00000000  0.80540060  1
  In  In13  1  0.33722696  0.00000000  0.59838888  1
  In  In14  1  0.50000000  0.50000000  0.50000000  1
  In  In15  1  0.50000000  0.50000000  0.00000000  1
  S  S16  1  0.93607107  0.50000000  0.84364065  1
  S  S17  1  0.92761811  0.00000000  0.61100067  1
  S  S18  1  0.73912599  0.50000000  0.37076183  1
  S  S19  1  0.91243200  0.50000000  0.34454551  1
  S  S20  1  0.26087401  0.50000000  0.62923817  1
  S  S21  1  0.08756800  0.50000000  0.65545449  1
  S  S22  1  0.07238189  0.00000000  0.38899933  1
  S  S23  1  0.11364343  0.00000000  0.94959443  1
  S  S24  1  0.06392893  0.50000000  0.15635935  1
  S  S25  1  0.88635657  0.00000000  0.05040557  1
  S  S26  1  0.43607107  0.00000000  0.84364065  1
  S  S27  1  0.42761811  0.50000000  0.61100067  1
  S  S28  1  0.23912599  0.00000000  0.37076183  1
  S  S29  1  0.41243200  0.00000000  0.34454551  1
  S  S30  1  0.76087401  0.00000000  0.62923817  1
  S  S31  1  0.58756800  0.00000000  0.65545449  1
  S  S32  1  0.57238189  0.50000000  0.38899933  1
  S  S33  1  0.61364343  0.50000000  0.94959443  1
  S  S34  1  0.56392893  0.00000000  0.15635935  1
  S  S35  1  0.38635657  0.50000000  0.05040557  1
