# generated using pymatgen
data_In2Te5
_symmetry_space_group_name_H-M   'P 1'
_cell_length_a   4.34800037
_cell_length_b   8.77006954
_cell_length_c   14.02196671
_cell_angle_alpha   89.82779193
_cell_angle_beta   89.44624621
_cell_angle_gamma   75.66811008
_symmetry_Int_Tables_number   1
_chemical_formula_structural   In2Te5
_chemical_formula_sum   'In4 Te10'
_cell_volume   518.02451424
_cell_formula_units_Z   2
loop_
 _symmetry_equiv_pos_site_id
 _symmetry_equiv_pos_as_xyz
  1  'x, y, z'
loop_
 _atom_site_type_symbol
 _atom_site_label
 _atom_site_symmetry_multiplicity
 _atom_site_fract_x
 _atom_site_fract_y
 _atom_site_fract_z
 _atom_site_occupancy
  In  In0  1  0.62238530  0.76983865  0.69042353  1
  In  In1  1  0.00107358  0.00617669  0.85289376  1
  In  In2  1  0.39244012  0.23080705  0.19145655  1
  In  In3  1  0.00587886  0.99371954  0.35337281  1
  Te  Te4  1  0.32594442  0.38841559  0.76926068  1
  Te  Te5  1  0.40147782  0.19870127  0.39684971  1
  Te  Te6  1  0.70937547  0.61113079  0.26939768  1
  Te  Te7  1  0.14679735  0.68691648  0.41587213  1
  Te  Te8  1  0.23209411  0.53504300  0.12403473  1
  Te  Te9  1  0.02040160  0.97524807  0.64726791  1
  Te  Te10  1  0.99472562  0.02577094  0.14789751  1
  Te  Te11  1  0.83403745  0.31230798  0.91616671  1
  Te  Te12  1  0.76757297  0.46512995  0.62388034  1
  Te  Te13  1  0.60159631  0.80079400  0.89582494  1
