# generated using pymatgen
data_SrIn2Rh
_symmetry_space_group_name_H-M   'P 1'
_cell_length_a   4.38244807
_cell_length_b   10.94353459
_cell_length_c   8.06086211
_cell_angle_alpha   90.00000000
_cell_angle_beta   90.00000000
_cell_angle_gamma   90.00000000
_symmetry_Int_Tables_number   1
_chemical_formula_structural   SrIn2Rh
_chemical_formula_sum   'Sr4 In8 Rh4'
_cell_volume   386.59469101
_cell_formula_units_Z   4
loop_
 _symmetry_equiv_pos_site_id
 _symmetry_equiv_pos_as_xyz
  1  'x, y, z'
loop_
 _atom_site_type_symbol
 _atom_site_label
 _atom_site_symmetry_multiplicity
 _atom_site_fract_x
 _atom_site_fract_y
 _atom_site_fract_z
 _atom_site_occupancy
  Sr  Sr0  1  0.00000000  0.05924146  0.75000000  1
  Sr  Sr1  1  0.50000000  0.44075854  0.25000000  1
  Sr  Sr2  1  0.50000000  0.55924146  0.75000000  1
  Sr  Sr3  1  0.00000000  0.94075854  0.25000000  1
  In  In4  1  0.00000000  0.34273347  0.94620283  1
  In  In5  1  0.50000000  0.15726653  0.05379717  1
  In  In6  1  0.50000000  0.15726653  0.44620283  1
  In  In7  1  0.00000000  0.34273347  0.55379717  1
  In  In8  1  0.50000000  0.84273347  0.94620283  1
  In  In9  1  0.00000000  0.65726653  0.05379717  1
  In  In10  1  0.00000000  0.65726653  0.44620283  1
  In  In11  1  0.50000000  0.84273347  0.55379717  1
  Rh  Rh12  1  0.50000000  0.28330098  0.75000000  1
  Rh  Rh13  1  0.00000000  0.21669902  0.25000000  1
  Rh  Rh14  1  0.00000000  0.78330098  0.75000000  1
  Rh  Rh15  1  0.50000000  0.71669902  0.25000000  1
