# generated using pymatgen
data_Ca(Ni2Sn)2
_symmetry_space_group_name_H-M   'P 1'
_cell_length_a   7.64908065
_cell_length_b   7.64908065
_cell_length_c   7.78588750
_cell_angle_alpha   90.00000000
_cell_angle_beta   90.00000000
_cell_angle_gamma   90.00000000
_symmetry_Int_Tables_number   1
_chemical_formula_structural   Ca(Ni2Sn)2
_chemical_formula_sum   'Ca4 Ni16 Sn8'
_cell_volume   455.54009095
_cell_formula_units_Z   4
loop_
 _symmetry_equiv_pos_site_id
 _symmetry_equiv_pos_as_xyz
  1  'x, y, z'
loop_
 _atom_site_type_symbol
 _atom_site_label
 _atom_site_symmetry_multiplicity
 _atom_site_fract_x
 _atom_site_fract_y
 _atom_site_fract_z
 _atom_site_occupancy
  Ca  Ca0  1  0.00000000  0.00000000  0.75000000  1
  Ca  Ca1  1  0.00000000  0.00000000  0.25000000  1
  Ca  Ca2  1  0.50000000  0.50000000  0.25000000  1
  Ca  Ca3  1  0.50000000  0.50000000  0.75000000  1
  Ni  Ni4  1  0.86029331  0.63970669  0.33489509  1
  Ni  Ni5  1  0.36029331  0.86029331  0.33489509  1
  Ni  Ni6  1  0.63970669  0.13970669  0.33489509  1
  Ni  Ni7  1  0.13970669  0.63970669  0.16510491  1
  Ni  Ni8  1  0.86029331  0.36029331  0.16510491  1
  Ni  Ni9  1  0.13970669  0.36029331  0.33489509  1
  Ni  Ni10  1  0.36029331  0.13970669  0.16510491  1
  Ni  Ni11  1  0.63970669  0.86029331  0.16510491  1
  Ni  Ni12  1  0.36029331  0.13970669  0.83489509  1
  Ni  Ni13  1  0.86029331  0.36029331  0.83489509  1
  Ni  Ni14  1  0.13970669  0.63970669  0.83489509  1
  Ni  Ni15  1  0.63970669  0.13970669  0.66510491  1
  Ni  Ni16  1  0.36029331  0.86029331  0.66510491  1
  Ni  Ni17  1  0.63970669  0.86029331  0.83489509  1
  Ni  Ni18  1  0.86029331  0.63970669  0.66510491  1
  Ni  Ni19  1  0.13970669  0.36029331  0.66510491  1
  Sn  Sn20  1  0.34172166  0.15827834  0.50000000  1
  Sn  Sn21  1  0.84172166  0.34172166  0.50000000  1
  Sn  Sn22  1  0.65827834  0.15827834  0.00000000  1
  Sn  Sn23  1  0.15827834  0.34172166  0.00000000  1
  Sn  Sn24  1  0.84172166  0.65827834  0.00000000  1
  Sn  Sn25  1  0.34172166  0.84172166  0.00000000  1
  Sn  Sn26  1  0.15827834  0.65827834  0.50000000  1
  Sn  Sn27  1  0.65827834  0.84172166  0.50000000  1
