# generated using pymatgen
data_Fe2NiP
_symmetry_space_group_name_H-M   'P 1'
_cell_length_a   8.98432257
_cell_length_b   8.98432257
_cell_length_c   4.39890895
_cell_angle_alpha   90.00000000
_cell_angle_beta   90.00000000
_cell_angle_gamma   90.00000000
_symmetry_Int_Tables_number   1
_chemical_formula_structural   Fe2NiP
_chemical_formula_sum   'Fe16 Ni8 P8'
_cell_volume   355.07136207
_cell_formula_units_Z   8
loop_
 _symmetry_equiv_pos_site_id
 _symmetry_equiv_pos_as_xyz
  1  'x, y, z'
loop_
 _atom_site_type_symbol
 _atom_site_label
 _atom_site_symmetry_multiplicity
 _atom_site_fract_x
 _atom_site_fract_y
 _atom_site_fract_z
 _atom_site_occupancy
  Fe  Fe0  1  0.60923953  0.42415685  0.27691630  1
  Fe  Fe1  1  0.85895756  0.53045541  0.48374161  1
  Fe  Fe2  1  0.07584315  0.10923953  0.22308370  1
  Fe  Fe3  1  0.92415685  0.89076047  0.22308370  1
  Fe  Fe4  1  0.14104244  0.46954459  0.48374161  1
  Fe  Fe5  1  0.39076047  0.57584315  0.27691630  1
  Fe  Fe6  1  0.96954459  0.35895756  0.01625839  1
  Fe  Fe7  1  0.03045541  0.64104244  0.01625839  1
  Fe  Fe8  1  0.10923953  0.92415685  0.77691630  1
  Fe  Fe9  1  0.35895756  0.03045541  0.98374161  1
  Fe  Fe10  1  0.57584315  0.60923953  0.72308370  1
  Fe  Fe11  1  0.42415685  0.39076047  0.72308370  1
  Fe  Fe12  1  0.64104244  0.96954459  0.98374161  1
  Fe  Fe13  1  0.89076047  0.07584315  0.77691630  1
  Fe  Fe14  1  0.46954459  0.85895756  0.51625839  1
  Fe  Fe15  1  0.53045541  0.14104244  0.51625839  1
  Ni  Ni16  1  0.17206911  0.22051274  0.74121148  1
  Ni  Ni17  1  0.27948726  0.67206911  0.75878852  1
  Ni  Ni18  1  0.72051274  0.32793089  0.75878852  1
  Ni  Ni19  1  0.82793089  0.77948726  0.74121148  1
  Ni  Ni20  1  0.67206911  0.72051274  0.24121148  1
  Ni  Ni21  1  0.77948726  0.17206911  0.25878852  1
  Ni  Ni22  1  0.22051274  0.82793089  0.25878852  1
  Ni  Ni23  1  0.32793089  0.27948726  0.24121148  1
  P  P24  1  0.20878595  0.45309629  0.98382527  1
  P  P25  1  0.95309629  0.29121405  0.51617473  1
  P  P26  1  0.79121405  0.54690371  0.98382527  1
  P  P27  1  0.04690371  0.70878595  0.51617473  1
  P  P28  1  0.70878595  0.95309629  0.48382527  1
  P  P29  1  0.45309629  0.79121405  0.01617473  1
  P  P30  1  0.29121405  0.04690371  0.48382527  1
  P  P31  1  0.54690371  0.20878595  0.01617473  1
