# generated using pymatgen
data_Rb2In3
_symmetry_space_group_name_H-M   'P 1'
_cell_length_a   6.91565654
_cell_length_b   6.91565654
_cell_length_c   15.93412034
_cell_angle_alpha   90.00000000
_cell_angle_beta   90.00000000
_cell_angle_gamma   90.00000000
_symmetry_Int_Tables_number   1
_chemical_formula_structural   Rb2In3
_chemical_formula_sum   'Rb8 In12'
_cell_volume   762.07010533
_cell_formula_units_Z   4
loop_
 _symmetry_equiv_pos_site_id
 _symmetry_equiv_pos_as_xyz
  1  'x, y, z'
loop_
 _atom_site_type_symbol
 _atom_site_label
 _atom_site_symmetry_multiplicity
 _atom_site_fract_x
 _atom_site_fract_y
 _atom_site_fract_z
 _atom_site_occupancy
  Rb  Rb0  1  0.50000000  0.50000000  0.10980251  1
  Rb  Rb1  1  0.00000000  0.00000000  0.39019749  1
  Rb  Rb2  1  0.50000000  0.00000000  0.25000000  1
  Rb  Rb3  1  0.00000000  0.50000000  0.25000000  1
  Rb  Rb4  1  0.00000000  0.00000000  0.60980251  1
  Rb  Rb5  1  0.50000000  0.50000000  0.89019749  1
  Rb  Rb6  1  0.00000000  0.50000000  0.75000000  1
  Rb  Rb7  1  0.50000000  0.00000000  0.75000000  1
  In  In8  1  0.00000000  0.70455538  0.00000000  1
  In  In9  1  0.50000000  0.50000000  0.35296139  1
  In  In10  1  0.00000000  0.00000000  0.14703861  1
  In  In11  1  0.70455538  0.00000000  0.00000000  1
  In  In12  1  0.00000000  0.29544462  0.00000000  1
  In  In13  1  0.29544462  0.00000000  0.00000000  1
  In  In14  1  0.50000000  0.20455538  0.50000000  1
  In  In15  1  0.00000000  0.00000000  0.85296139  1
  In  In16  1  0.50000000  0.50000000  0.64703861  1
  In  In17  1  0.20455538  0.50000000  0.50000000  1
  In  In18  1  0.50000000  0.79544462  0.50000000  1
  In  In19  1  0.79544462  0.50000000  0.50000000  1
