# generated using pymatgen
data_RbFeS2
_symmetry_space_group_name_H-M   'P 1'
_cell_length_a   7.34166863
_cell_length_b   11.43755915
_cell_length_c   5.38612830
_cell_angle_alpha   90.00000000
_cell_angle_beta   111.28066396
_cell_angle_gamma   90.00000000
_symmetry_Int_Tables_number   1
_chemical_formula_structural   RbFeS2
_chemical_formula_sum   'Rb4 Fe4 S8'
_cell_volume   421.43824671
_cell_formula_units_Z   4
loop_
 _symmetry_equiv_pos_site_id
 _symmetry_equiv_pos_as_xyz
  1  'x, y, z'
loop_
 _atom_site_type_symbol
 _atom_site_label
 _atom_site_symmetry_multiplicity
 _atom_site_fract_x
 _atom_site_fract_y
 _atom_site_fract_z
 _atom_site_occupancy
  Rb  Rb0  1  0.50000000  0.14381815  0.75000000  1
  Rb  Rb1  1  0.50000000  0.85618185  0.25000000  1
  Rb  Rb2  1  0.00000000  0.64381815  0.75000000  1
  Rb  Rb3  1  0.00000000  0.35618185  0.25000000  1
  Fe  Fe4  1  0.50000000  0.49592029  0.25000000  1
  Fe  Fe5  1  0.50000000  0.50407971  0.75000000  1
  Fe  Fe6  1  0.00000000  0.99592029  0.25000000  1
  Fe  Fe7  1  0.00000000  0.00407971  0.75000000  1
  S  S8  1  0.81028225  0.10210232  0.40018711  1
  S  S9  1  0.18971775  0.10210232  0.09981289  1
  S  S10  1  0.81028225  0.89789768  0.90018711  1
  S  S11  1  0.18971775  0.89789768  0.59981289  1
  S  S12  1  0.31028225  0.60210232  0.40018711  1
  S  S13  1  0.68971775  0.60210232  0.09981289  1
  S  S14  1  0.31028225  0.39789768  0.90018711  1
  S  S15  1  0.68971775  0.39789768  0.59981289  1
