# generated using pymatgen
data_Cr2S3
_symmetry_space_group_name_H-M   'P 1'
_cell_length_a   6.01610485
_cell_length_b   6.01610485
_cell_length_c   16.90286116
_cell_angle_alpha   90.00000000
_cell_angle_beta   90.00000000
_cell_angle_gamma   120.00000000
_symmetry_Int_Tables_number   1
_chemical_formula_structural   Cr2S3
_chemical_formula_sum   'Cr12 S18'
_cell_volume   529.81182673
_cell_formula_units_Z   6
loop_
 _symmetry_equiv_pos_site_id
 _symmetry_equiv_pos_as_xyz
  1  'x, y, z'
loop_
 _atom_site_type_symbol
 _atom_site_label
 _atom_site_symmetry_multiplicity
 _atom_site_fract_x
 _atom_site_fract_y
 _atom_site_fract_z
 _atom_site_occupancy
  Cr  Cr0  1  0.00000000  0.00000000  0.32193098  1
  Cr  Cr1  1  0.33333333  0.66666667  0.16666667  1
  Cr  Cr2  1  0.00000000  0.00000000  0.00000000  1
  Cr  Cr3  1  0.66666667  0.33333333  0.01140235  1
  Cr  Cr4  1  0.66666667  0.33333333  0.65526431  1
  Cr  Cr5  1  1.00000000  0.00000000  0.50000000  1
  Cr  Cr6  1  0.66666667  0.33333333  0.33333333  1
  Cr  Cr7  1  0.33333333  0.66666667  0.34473569  1
  Cr  Cr8  1  0.33333333  0.66666667  0.98859765  1
  Cr  Cr9  1  0.66666667  0.33333333  0.83333333  1
  Cr  Cr10  1  0.33333333  0.66666667  0.66666667  1
  Cr  Cr11  1  0.00000000  0.00000000  0.67806902  1
  S  S12  1  0.32307475  0.97771257  0.07792942  1
  S  S13  1  0.01202885  0.65640808  0.25540391  1
  S  S14  1  0.65463782  0.67692525  0.07792942  1
  S  S15  1  0.34359192  0.35562076  0.25540391  1
  S  S16  1  0.64437924  0.98797115  0.25540391  1
  S  S17  1  0.02228743  0.34536218  0.07792942  1
  S  S18  1  0.98974142  0.31104590  0.41126275  1
  S  S19  1  0.67869551  0.98974142  0.58873725  1
  S  S20  1  0.32130449  0.01025858  0.41126275  1
  S  S21  1  0.01025858  0.68895410  0.58873725  1
  S  S22  1  0.31104590  0.32130449  0.58873725  1
  S  S23  1  0.68895410  0.67869551  0.41126275  1
  S  S24  1  0.65640808  0.64437924  0.74459609  1
  S  S25  1  0.34536218  0.32307475  0.92207058  1
  S  S26  1  0.98797115  0.34359192  0.74459609  1
  S  S27  1  0.67692525  0.02228743  0.92207058  1
  S  S28  1  0.97771257  0.65463782  0.92207058  1
  S  S29  1  0.35562076  0.01202885  0.74459609  1
