# generated using pymatgen
data_Cs4Sn2Au7
_symmetry_space_group_name_H-M   'P 1'
_cell_length_a   6.93107807
_cell_length_b   6.93107807
_cell_length_c   29.69523126
_cell_angle_alpha   90.00000000
_cell_angle_beta   90.00000000
_cell_angle_gamma   120.00000000
_symmetry_Int_Tables_number   1
_chemical_formula_structural   Cs4Sn2Au7
_chemical_formula_sum   'Cs12 Sn6 Au21'
_cell_volume   1235.43222456
_cell_formula_units_Z   3
loop_
 _symmetry_equiv_pos_site_id
 _symmetry_equiv_pos_as_xyz
  1  'x, y, z'
loop_
 _atom_site_type_symbol
 _atom_site_label
 _atom_site_symmetry_multiplicity
 _atom_site_fract_x
 _atom_site_fract_y
 _atom_site_fract_z
 _atom_site_occupancy
  Cs  Cs0  1  0.00000000  0.00000000  0.81288984  1
  Cs  Cs1  1  0.00000000  0.00000000  0.68494164  1
  Cs  Cs2  1  0.33333333  0.66666667  0.98172503  1
  Cs  Cs3  1  0.33333333  0.66666667  0.85377683  1
  Cs  Cs4  1  0.66666667  0.33333333  0.14622317  1
  Cs  Cs5  1  0.66666667  0.33333333  0.01827497  1
  Cs  Cs6  1  0.00000000  0.00000000  0.31505836  1
  Cs  Cs7  1  0.00000000  0.00000000  0.18711016  1
  Cs  Cs8  1  0.33333333  0.66666667  0.47955651  1
  Cs  Cs9  1  0.33333333  0.66666667  0.35160831  1
  Cs  Cs10  1  0.66666667  0.33333333  0.64839169  1
  Cs  Cs11  1  0.66666667  0.33333333  0.52044349  1
  Sn  Sn12  1  0.66666667  0.33333333  0.78288824  1
  Sn  Sn13  1  0.66666667  0.33333333  0.88377842  1
  Sn  Sn14  1  0.33333333  0.66666667  0.11622158  1
  Sn  Sn15  1  0.33333333  0.66666667  0.21711176  1
  Sn  Sn16  1  0.00000000  0.00000000  0.44955491  1
  Sn  Sn17  1  0.00000000  0.00000000  0.55044509  1
  Au  Au18  1  0.86478898  0.72957796  0.92341938  1
  Au  Au19  1  0.06291129  0.53145565  0.74324729  1
  Au  Au20  1  0.27042204  0.13521102  0.92341938  1
  Au  Au21  1  0.46854435  0.53145565  0.74324729  1
  Au  Au22  1  0.86478898  0.13521102  0.92341938  1
  Au  Au23  1  0.00000000  0.00000000  0.00000000  1
  Au  Au24  1  0.46854435  0.93708871  0.74324729  1
  Au  Au25  1  0.53145565  0.06291129  0.25675271  1
  Au  Au26  1  0.72957796  0.86478898  0.07658062  1
  Au  Au27  1  0.93708871  0.46854435  0.25675271  1
  Au  Au28  1  0.13521102  0.86478898  0.07658062  1
  Au  Au29  1  0.53145565  0.46854435  0.25675271  1
  Au  Au30  1  0.66666667  0.33333333  0.33333333  1
  Au  Au31  1  0.13521102  0.27042204  0.07658062  1
  Au  Au32  1  0.19812231  0.39624463  0.59008605  1
  Au  Au33  1  0.39624463  0.19812231  0.40991395  1
  Au  Au34  1  0.60375537  0.80187769  0.59008605  1
  Au  Au35  1  0.80187769  0.19812231  0.40991395  1
  Au  Au36  1  0.19812231  0.80187769  0.59008605  1
  Au  Au37  1  0.33333333  0.66666667  0.66666667  1
  Au  Au38  1  0.80187769  0.60375537  0.40991395  1
