# generated using pymatgen
data_Ta3Si
_symmetry_space_group_name_H-M   'P 1'
_cell_length_a   10.17438924
_cell_length_b   10.17438924
_cell_length_c   5.19595151
_cell_angle_alpha   90.00000000
_cell_angle_beta   90.00000000
_cell_angle_gamma   90.00000000
_symmetry_Int_Tables_number   1
_chemical_formula_structural   Ta3Si
_chemical_formula_sum   'Ta24 Si8'
_cell_volume   537.87552895
_cell_formula_units_Z   8
loop_
 _symmetry_equiv_pos_site_id
 _symmetry_equiv_pos_as_xyz
  1  'x, y, z'
loop_
 _atom_site_type_symbol
 _atom_site_label
 _atom_site_symmetry_multiplicity
 _atom_site_fract_x
 _atom_site_fract_y
 _atom_site_fract_z
 _atom_site_occupancy
  Ta  Ta0  1  0.51861610  0.64602046  0.27416167  1
  Ta  Ta1  1  0.39953393  0.08596587  0.03127079  1
  Ta  Ta2  1  0.71360889  0.81292215  0.51447498  1
  Ta  Ta3  1  0.89953393  0.58596587  0.46872921  1
  Ta  Ta4  1  0.85397954  0.01861610  0.77416167  1
  Ta  Ta5  1  0.01861610  0.14602046  0.22583833  1
  Ta  Ta6  1  0.78639111  0.68707785  0.98552502  1
  Ta  Ta7  1  0.28639111  0.18707785  0.51447498  1
  Ta  Ta8  1  0.68707785  0.21360889  0.01447498  1
  Ta  Ta9  1  0.41403413  0.89953393  0.53127079  1
  Ta  Ta10  1  0.81292215  0.28639111  0.48552502  1
  Ta  Ta11  1  0.35397954  0.51861610  0.72583833  1
  Ta  Ta12  1  0.64602046  0.48138390  0.72583833  1
  Ta  Ta13  1  0.14602046  0.98138390  0.77416167  1
  Ta  Ta14  1  0.21360889  0.31292215  0.98552502  1
  Ta  Ta15  1  0.91403413  0.39953393  0.96872921  1
  Ta  Ta16  1  0.31292215  0.78639111  0.01447498  1
  Ta  Ta17  1  0.60046607  0.91403413  0.03127079  1
  Ta  Ta18  1  0.08596587  0.60046607  0.96872921  1
  Ta  Ta19  1  0.10046607  0.41403413  0.46872921  1
  Ta  Ta20  1  0.98138390  0.85397954  0.22583833  1
  Ta  Ta21  1  0.18707785  0.71360889  0.48552502  1
  Ta  Ta22  1  0.48138390  0.35397954  0.27416167  1
  Ta  Ta23  1  0.58596587  0.10046607  0.53127079  1
  Si  Si24  1  0.96978414  0.79497470  0.71923901  1
  Si  Si25  1  0.20502530  0.96978414  0.28076099  1
  Si  Si26  1  0.79497470  0.03021586  0.28076099  1
  Si  Si27  1  0.46978414  0.29497470  0.78076099  1
  Si  Si28  1  0.29497470  0.53021586  0.21923901  1
  Si  Si29  1  0.03021586  0.20502530  0.71923901  1
  Si  Si30  1  0.70502530  0.46978414  0.21923901  1
  Si  Si31  1  0.53021586  0.70502530  0.78076099  1
