# generated using pymatgen
data_Na2PSe3
_symmetry_space_group_name_H-M   'P 1'
_cell_length_a   11.81591380
_cell_length_b   13.27927790
_cell_length_c   8.02166104
_cell_angle_alpha   90.00000000
_cell_angle_beta   90.00000000
_cell_angle_gamma   90.00000000
_symmetry_Int_Tables_number   1
_chemical_formula_structural   Na2PSe3
_chemical_formula_sum   'Na16 P8 Se24'
_cell_volume   1258.65318848
_cell_formula_units_Z   8
loop_
 _symmetry_equiv_pos_site_id
 _symmetry_equiv_pos_as_xyz
  1  'x, y, z'
loop_
 _atom_site_type_symbol
 _atom_site_label
 _atom_site_symmetry_multiplicity
 _atom_site_fract_x
 _atom_site_fract_y
 _atom_site_fract_z
 _atom_site_occupancy
  Na  Na0  1  0.75000000  0.02780770  0.25000000  1
  Na  Na1  1  0.75000000  0.97219230  0.75000000  1
  Na  Na2  1  0.50000000  0.31527558  0.15647938  1
  Na  Na3  1  0.50000000  0.68472442  0.84352062  1
  Na  Na4  1  0.25000000  0.02780770  0.25000000  1
  Na  Na5  1  0.50000000  0.81527558  0.34352062  1
  Na  Na6  1  0.50000000  0.18472442  0.65647938  1
  Na  Na7  1  0.25000000  0.97219230  0.75000000  1
  Na  Na8  1  0.25000000  0.52780770  0.25000000  1
  Na  Na9  1  0.25000000  0.47219230  0.75000000  1
  Na  Na10  1  0.00000000  0.81527558  0.15647938  1
  Na  Na11  1  0.00000000  0.18472442  0.84352062  1
  Na  Na12  1  0.75000000  0.52780770  0.25000000  1
  Na  Na13  1  0.00000000  0.31527558  0.34352062  1
  Na  Na14  1  0.00000000  0.68472442  0.65647938  1
  Na  Na15  1  0.75000000  0.47219230  0.75000000  1
  P  P16  1  0.50000000  0.57819583  0.44620793  1
  P  P17  1  0.50000000  0.07819583  0.05379207  1
  P  P18  1  0.50000000  0.42180417  0.55379207  1
  P  P19  1  0.50000000  0.92180417  0.94620793  1
  P  P20  1  0.00000000  0.07819583  0.44620793  1
  P  P21  1  0.00000000  0.57819583  0.05379207  1
  P  P22  1  0.00000000  0.92180417  0.55379207  1
  P  P23  1  0.00000000  0.42180417  0.94620793  1
  Se  Se24  1  0.65319361  0.65374846  0.53338252  1
  Se  Se25  1  0.34680639  0.65374846  0.53338252  1
  Se  Se26  1  0.50000000  0.55323404  0.17639946  1
  Se  Se27  1  0.34680639  0.15374846  0.96661748  1
  Se  Se28  1  0.65319361  0.15374846  0.96661748  1
  Se  Se29  1  0.65319361  0.34625154  0.46661748  1
  Se  Se30  1  0.50000000  0.94676596  0.67639946  1
  Se  Se31  1  0.50000000  0.05323404  0.32360054  1
  Se  Se32  1  0.65319361  0.84625154  0.03338252  1
  Se  Se33  1  0.34680639  0.84625154  0.03338252  1
  Se  Se34  1  0.34680639  0.34625154  0.46661748  1
  Se  Se35  1  0.50000000  0.44676596  0.82360054  1
  Se  Se36  1  0.15319361  0.15374846  0.53338252  1
  Se  Se37  1  0.84680639  0.15374846  0.53338252  1
  Se  Se38  1  0.00000000  0.05323404  0.17639946  1
  Se  Se39  1  0.84680639  0.65374846  0.96661748  1
  Se  Se40  1  0.15319361  0.65374846  0.96661748  1
  Se  Se41  1  0.15319361  0.84625154  0.46661748  1
  Se  Se42  1  0.00000000  0.44676596  0.67639946  1
  Se  Se43  1  0.00000000  0.55323404  0.32360054  1
  Se  Se44  1  0.15319361  0.34625154  0.03338252  1
  Se  Se45  1  0.84680639  0.34625154  0.03338252  1
  Se  Se46  1  0.84680639  0.84625154  0.46661748  1
  Se  Se47  1  0.00000000  0.94676596  0.82360054  1
