# generated using pymatgen
data_CsSiTe3
_symmetry_space_group_name_H-M   'P 1'
_cell_length_a   8.54685583
_cell_length_b   14.19596988
_cell_length_c   13.56096589
_cell_angle_alpha   90.00000000
_cell_angle_beta   100.64212903
_cell_angle_gamma   90.00000000
_symmetry_Int_Tables_number   1
_chemical_formula_structural   CsSiTe3
_chemical_formula_sum   'Cs8 Si8 Te24'
_cell_volume   1617.06375020
_cell_formula_units_Z   8
loop_
 _symmetry_equiv_pos_site_id
 _symmetry_equiv_pos_as_xyz
  1  'x, y, z'
loop_
 _atom_site_type_symbol
 _atom_site_label
 _atom_site_symmetry_multiplicity
 _atom_site_fract_x
 _atom_site_fract_y
 _atom_site_fract_z
 _atom_site_occupancy
  Cs  Cs0  1  0.52731017  0.74953011  0.18840327  1
  Cs  Cs1  1  0.43248087  0.09153002  0.41361103  1
  Cs  Cs2  1  0.52731017  0.25046989  0.68840327  1
  Cs  Cs3  1  0.43248087  0.90846998  0.91361103  1
  Cs  Cs4  1  0.02731017  0.24953011  0.18840327  1
  Cs  Cs5  1  0.93248087  0.59153002  0.41361103  1
  Cs  Cs6  1  0.02731017  0.75046989  0.68840327  1
  Cs  Cs7  1  0.93248087  0.40846998  0.91361103  1
  Si  Si8  1  0.88685674  0.94472394  0.38838361  1
  Si  Si9  1  0.52486067  0.42346216  0.13241168  1
  Si  Si10  1  0.52486067  0.57653784  0.63241168  1
  Si  Si11  1  0.88685674  0.05527606  0.88838361  1
  Si  Si12  1  0.38685674  0.44472394  0.38838361  1
  Si  Si13  1  0.02486067  0.92346216  0.13241168  1
  Si  Si14  1  0.02486067  0.07653784  0.63241168  1
  Si  Si15  1  0.38685674  0.55527606  0.88838361  1
  Te  Te16  1  0.79560082  0.99461509  0.20395797  1
  Te  Te17  1  0.58391414  0.27048125  0.22527016  1
  Te  Te18  1  0.69462914  0.84858173  0.45533311  1
  Te  Te19  1  0.16503335  0.86847605  0.41530719  1
  Te  Te20  1  0.69462914  0.15141827  0.95533311  1
  Te  Te21  1  0.26111608  0.02482146  0.13447415  1
  Te  Te22  1  0.79560082  0.00538491  0.70395797  1
  Te  Te23  1  0.26111608  0.97517854  0.63447415  1
  Te  Te24  1  0.58391414  0.72951875  0.72527016  1
  Te  Te25  1  0.41419953  0.38476917  0.95074782  1
  Te  Te26  1  0.41419953  0.61523083  0.45074782  1
  Te  Te27  1  0.16503335  0.13152395  0.91530719  1
  Te  Te28  1  0.29560082  0.49461509  0.20395797  1
  Te  Te29  1  0.08391414  0.77048125  0.22527016  1
  Te  Te30  1  0.19462914  0.34858173  0.45533311  1
  Te  Te31  1  0.66503335  0.36847605  0.41530719  1
  Te  Te32  1  0.19462914  0.65141827  0.95533311  1
  Te  Te33  1  0.76111608  0.52482146  0.13447415  1
  Te  Te34  1  0.29560082  0.50538491  0.70395797  1
  Te  Te35  1  0.76111608  0.47517854  0.63447415  1
  Te  Te36  1  0.08391414  0.22951875  0.72527016  1
  Te  Te37  1  0.91419953  0.88476917  0.95074782  1
  Te  Te38  1  0.91419953  0.11523083  0.45074782  1
  Te  Te39  1  0.66503335  0.63152395  0.91530719  1
