# generated using pymatgen
data_Cu2WS4
_symmetry_space_group_name_H-M   'P 1'
_cell_length_a   5.42420458
_cell_length_b   5.42420458
_cell_length_c   10.51315490
_cell_angle_alpha   90.00000000
_cell_angle_beta   90.00000000
_cell_angle_gamma   90.00000000
_symmetry_Int_Tables_number   1
_chemical_formula_structural   Cu2WS4
_chemical_formula_sum   'Cu4 W2 S8'
_cell_volume   309.31799433
_cell_formula_units_Z   2
loop_
 _symmetry_equiv_pos_site_id
 _symmetry_equiv_pos_as_xyz
  1  'x, y, z'
loop_
 _atom_site_type_symbol
 _atom_site_label
 _atom_site_symmetry_multiplicity
 _atom_site_fract_x
 _atom_site_fract_y
 _atom_site_fract_z
 _atom_site_occupancy
  Cu  Cu0  1  0.00000000  0.50000000  0.00000000  1
  Cu  Cu1  1  0.50000000  0.00000000  0.00000000  1
  Cu  Cu2  1  0.50000000  0.00000000  0.50000000  1
  Cu  Cu3  1  0.00000000  0.50000000  0.50000000  1
  W  W4  1  0.00000000  0.00000000  0.00000000  1
  W  W5  1  0.50000000  0.50000000  0.50000000  1
  S  S6  1  0.23820011  0.76179989  0.12216466  1
  S  S7  1  0.76179989  0.23820011  0.12216466  1
  S  S8  1  0.73820011  0.73820011  0.37783534  1
  S  S9  1  0.26179989  0.26179989  0.37783534  1
  S  S10  1  0.73820011  0.26179989  0.62216465  1
  S  S11  1  0.26179989  0.73820011  0.62216465  1
  S  S12  1  0.23820011  0.23820011  0.87783535  1
  S  S13  1  0.76179989  0.76179989  0.87783535  1
