# generated using pymatgen
data_SbPd2
_symmetry_space_group_name_H-M   'P 1'
_cell_length_a   3.45515760
_cell_length_b   17.55609853
_cell_length_c   6.96596167
_cell_angle_alpha   90.00000000
_cell_angle_beta   90.00000000
_cell_angle_gamma   90.00000000
_symmetry_Int_Tables_number   1
_chemical_formula_structural   SbPd2
_chemical_formula_sum   'Sb8 Pd16'
_cell_volume   422.54887730
_cell_formula_units_Z   8
loop_
 _symmetry_equiv_pos_site_id
 _symmetry_equiv_pos_as_xyz
  1  'x, y, z'
loop_
 _atom_site_type_symbol
 _atom_site_label
 _atom_site_symmetry_multiplicity
 _atom_site_fract_x
 _atom_site_fract_y
 _atom_site_fract_z
 _atom_site_occupancy
  Sb  Sb0  1  0.50000000  0.94255121  0.80188859  1
  Sb  Sb1  1  0.00000000  0.55744879  0.30188859  1
  Sb  Sb2  1  0.00000000  0.79530895  0.27360917  1
  Sb  Sb3  1  0.50000000  0.70469105  0.77360917  1
  Sb  Sb4  1  0.00000000  0.44255121  0.80188859  1
  Sb  Sb5  1  0.50000000  0.05744879  0.30188859  1
  Sb  Sb6  1  0.50000000  0.29530895  0.27360917  1
  Sb  Sb7  1  0.00000000  0.20469105  0.77360917  1
  Pd  Pd8  1  0.50000000  0.53833615  0.99610134  1
  Pd  Pd9  1  0.00000000  0.96166385  0.49610134  1
  Pd  Pd10  1  0.00000000  0.82475128  0.89369289  1
  Pd  Pd11  1  0.50000000  0.67524872  0.39369289  1
  Pd  Pd12  1  0.00000000  0.67027697  0.04736430  1
  Pd  Pd13  1  0.50000000  0.82972303  0.54736430  1
  Pd  Pd14  1  0.50000000  0.91369258  0.17304371  1
  Pd  Pd15  1  0.00000000  0.58630742  0.67304371  1
  Pd  Pd16  1  0.00000000  0.03833615  0.99610134  1
  Pd  Pd17  1  0.50000000  0.46166385  0.49610134  1
  Pd  Pd18  1  0.50000000  0.32475128  0.89369289  1
  Pd  Pd19  1  0.00000000  0.17524872  0.39369289  1
  Pd  Pd20  1  0.50000000  0.17027697  0.04736430  1
  Pd  Pd21  1  0.00000000  0.32972303  0.54736430  1
  Pd  Pd22  1  0.00000000  0.41369258  0.17304371  1
  Pd  Pd23  1  0.50000000  0.08630742  0.67304371  1
