# generated using pymatgen
data_Mo2As3
_symmetry_space_group_name_H-M   'P 1'
_cell_length_a   13.39793415
_cell_length_b   3.27693013
_cell_length_c   9.66163153
_cell_angle_alpha   90.00000000
_cell_angle_beta   124.69828174
_cell_angle_gamma   90.00000000
_symmetry_Int_Tables_number   1
_chemical_formula_structural   Mo2As3
_chemical_formula_sum   'Mo8 As12'
_cell_volume   348.74855966
_cell_formula_units_Z   4
loop_
 _symmetry_equiv_pos_site_id
 _symmetry_equiv_pos_as_xyz
  1  'x, y, z'
loop_
 _atom_site_type_symbol
 _atom_site_label
 _atom_site_symmetry_multiplicity
 _atom_site_fract_x
 _atom_site_fract_y
 _atom_site_fract_z
 _atom_site_occupancy
  Mo  Mo0  1  0.75184464  0.00000000  0.62838620  1
  Mo  Mo1  1  0.24815536  0.00000000  0.37161380  1
  Mo  Mo2  1  0.64937617  0.00000000  0.86578880  1
  Mo  Mo3  1  0.35062383  0.00000000  0.13421120  1
  Mo  Mo4  1  0.25184464  0.50000000  0.62838620  1
  Mo  Mo5  1  0.74815536  0.50000000  0.37161380  1
  Mo  Mo6  1  0.14937617  0.50000000  0.86578880  1
  Mo  Mo7  1  0.85062383  0.50000000  0.13421120  1
  As  As8  1  0.87155689  0.00000000  0.95366642  1
  As  As9  1  0.12844311  0.00000000  0.04633358  1
  As  As10  1  0.58686674  0.00000000  0.31549045  1
  As  As11  1  0.41313326  0.00000000  0.68450955  1
  As  As12  1  0.39530358  0.50000000  0.37077597  1
  As  As13  1  0.60469642  0.50000000  0.62922403  1
  As  As14  1  0.37155689  0.50000000  0.95366642  1
  As  As15  1  0.62844311  0.50000000  0.04633358  1
  As  As16  1  0.08686674  0.50000000  0.31549045  1
  As  As17  1  0.91313326  0.50000000  0.68450955  1
  As  As18  1  0.89530358  0.00000000  0.37077597  1
  As  As19  1  0.10469642  0.00000000  0.62922403  1
