# generated using pymatgen
data_Ti3Ni4
_symmetry_space_group_name_H-M   'P 1'
_cell_length_a   11.16064361
_cell_length_b   11.16064361
_cell_length_c   5.01252217
_cell_angle_alpha   90.00000000
_cell_angle_beta   90.00000000
_cell_angle_gamma   120.00000000
_symmetry_Int_Tables_number   1
_chemical_formula_structural   Ti3Ni4
_chemical_formula_sum   'Ti18 Ni24'
_cell_volume   540.71126605
_cell_formula_units_Z   6
loop_
 _symmetry_equiv_pos_site_id
 _symmetry_equiv_pos_as_xyz
  1  'x, y, z'
loop_
 _atom_site_type_symbol
 _atom_site_label
 _atom_site_symmetry_multiplicity
 _atom_site_fract_x
 _atom_site_fract_y
 _atom_site_fract_z
 _atom_site_occupancy
  Ti  Ti0  1  0.49006913  0.37626408  0.61583152  1
  Ti  Ti1  1  0.44713838  0.15673579  0.05083514  1
  Ti  Ti2  1  0.17659754  0.95706925  0.71750181  1
  Ti  Ti3  1  0.37626408  0.88619496  0.38416848  1
  Ti  Ti4  1  0.29040258  0.44713838  0.94916486  1
  Ti  Ti5  1  0.21952829  0.17659754  0.28249819  1
  Ti  Ti6  1  0.15673579  0.70959742  0.94916486  1
  Ti  Ti7  1  0.11380504  0.49006913  0.38416848  1
  Ti  Ti8  1  0.84326421  0.29040258  0.05083514  1
  Ti  Ti9  1  0.04293075  0.21952829  0.71750181  1
  Ti  Ti10  1  0.95706925  0.78047171  0.28249819  1
  Ti  Ti11  1  0.88619496  0.50993087  0.61583152  1
  Ti  Ti12  1  0.82340246  0.04293075  0.28249819  1
  Ti  Ti13  1  0.78047171  0.82340246  0.71750181  1
  Ti  Ti14  1  0.50993087  0.62373592  0.38416848  1
  Ti  Ti15  1  0.70959742  0.55286162  0.05083514  1
  Ti  Ti16  1  0.62373592  0.11380504  0.61583152  1
  Ti  Ti17  1  0.55286162  0.84326421  0.94916486  1
  Ni  Ni18  1  0.38599271  0.93150374  0.87313882  1
  Ni  Ni19  1  0.28067396  0.40182959  0.46019451  1
  Ni  Ni20  1  0.40182959  0.12115563  0.53980549  1
  Ni  Ni21  1  0.21217770  0.94734063  0.20647216  1
  Ni  Ni22  1  0.26483708  0.21217770  0.79352784  1
  Ni  Ni23  1  0.00000000  0.00000000  0.00000000  1
  Ni  Ni24  1  0.45448896  0.38599271  0.12686118  1
  Ni  Ni25  1  0.00000000  0.00000000  0.50000000  1
  Ni  Ni26  1  0.05265937  0.26483708  0.20647216  1
  Ni  Ni27  1  0.94734063  0.73516292  0.79352784  1
  Ni  Ni28  1  0.06849626  0.45448896  0.87313882  1
  Ni  Ni29  1  0.87884437  0.28067396  0.53980549  1
  Ni  Ni30  1  0.93150374  0.54551104  0.12686118  1
  Ni  Ni31  1  0.66666667  0.33333333  0.33333333  1
  Ni  Ni32  1  0.12115563  0.71932604  0.46019451  1
  Ni  Ni33  1  0.66666667  0.33333333  0.83333333  1
  Ni  Ni34  1  0.71932604  0.59817041  0.53980549  1
  Ni  Ni35  1  0.61400729  0.06849626  0.12686118  1
  Ni  Ni36  1  0.73516292  0.78782230  0.20647216  1
  Ni  Ni37  1  0.54551104  0.61400729  0.87313882  1
  Ni  Ni38  1  0.59817041  0.87884437  0.46019451  1
  Ni  Ni39  1  0.33333333  0.66666667  0.66666667  1
  Ni  Ni40  1  0.78782230  0.05265937  0.79352784  1
  Ni  Ni41  1  0.33333333  0.66666667  0.16666667  1
