# generated using pymatgen
data_V5Si3
_symmetry_space_group_name_H-M   'P 1'
_cell_length_a   9.35800629
_cell_length_b   9.35800629
_cell_length_c   4.69927424
_cell_angle_alpha   90.00000000
_cell_angle_beta   90.00000000
_cell_angle_gamma   90.00000000
_symmetry_Int_Tables_number   1
_chemical_formula_structural   V5Si3
_chemical_formula_sum   'V20 Si12'
_cell_volume   411.52616717
_cell_formula_units_Z   4
loop_
 _symmetry_equiv_pos_site_id
 _symmetry_equiv_pos_as_xyz
  1  'x, y, z'
loop_
 _atom_site_type_symbol
 _atom_site_label
 _atom_site_symmetry_multiplicity
 _atom_site_fract_x
 _atom_site_fract_y
 _atom_site_fract_z
 _atom_site_occupancy
  V  V0  1  0.77533405  0.07439151  0.50000000  1
  V  V1  1  0.50000000  0.00000000  0.25000000  1
  V  V2  1  0.22466595  0.07439151  0.00000000  1
  V  V3  1  0.77533405  0.92560849  0.00000000  1
  V  V4  1  0.50000000  0.00000000  0.75000000  1
  V  V5  1  0.57439151  0.72466595  0.00000000  1
  V  V6  1  0.22466595  0.92560849  0.50000000  1
  V  V7  1  0.57439151  0.27533405  0.50000000  1
  V  V8  1  0.42560849  0.27533405  0.00000000  1
  V  V9  1  0.42560849  0.72466595  0.50000000  1
  V  V10  1  0.27533405  0.57439151  0.00000000  1
  V  V11  1  0.00000000  0.50000000  0.75000000  1
  V  V12  1  0.72466595  0.57439151  0.50000000  1
  V  V13  1  0.27533405  0.42560849  0.50000000  1
  V  V14  1  0.00000000  0.50000000  0.25000000  1
  V  V15  1  0.07439151  0.22466595  0.50000000  1
  V  V16  1  0.72466595  0.42560849  0.00000000  1
  V  V17  1  0.07439151  0.77533405  0.00000000  1
  V  V18  1  0.92560849  0.77533405  0.50000000  1
  V  V19  1  0.92560849  0.22466595  0.00000000  1
  Si  Si20  1  0.66607566  0.16607566  0.00000000  1
  Si  Si21  1  0.00000000  0.00000000  0.25000000  1
  Si  Si22  1  0.33392434  0.16607566  0.50000000  1
  Si  Si23  1  0.33392434  0.83392434  0.00000000  1
  Si  Si24  1  0.00000000  0.00000000  0.75000000  1
  Si  Si25  1  0.66607566  0.83392434  0.50000000  1
  Si  Si26  1  0.16607566  0.66607566  0.50000000  1
  Si  Si27  1  0.50000000  0.50000000  0.75000000  1
  Si  Si28  1  0.83392434  0.66607566  0.00000000  1
  Si  Si29  1  0.83392434  0.33392434  0.50000000  1
  Si  Si30  1  0.50000000  0.50000000  0.25000000  1
  Si  Si31  1  0.16607566  0.33392434  0.00000000  1
