# generated using pymatgen
data_Y5GaCo5
_symmetry_space_group_name_H-M   'P 1'
_cell_length_a   4.21522572
_cell_length_b   10.26646116
_cell_length_c   20.15016671
_cell_angle_alpha   90.00000000
_cell_angle_beta   90.00000000
_cell_angle_gamma   90.00000000
_symmetry_Int_Tables_number   1
_chemical_formula_structural   Y5GaCo5
_chemical_formula_sum   'Y20 Ga4 Co20'
_cell_volume   872.00755482
_cell_formula_units_Z   4
loop_
 _symmetry_equiv_pos_site_id
 _symmetry_equiv_pos_as_xyz
  1  'x, y, z'
loop_
 _atom_site_type_symbol
 _atom_site_label
 _atom_site_symmetry_multiplicity
 _atom_site_fract_x
 _atom_site_fract_y
 _atom_site_fract_z
 _atom_site_occupancy
  Y  Y0  1  0.50000000  0.23090562  0.75000000  1
  Y  Y1  1  0.50000000  0.22605795  0.56624521  1
  Y  Y2  1  0.50000000  0.48419595  0.34484187  1
  Y  Y3  1  0.00000000  0.26909438  0.25000000  1
  Y  Y4  1  0.00000000  0.27394205  0.06624521  1
  Y  Y5  1  0.00000000  0.01580405  0.84484187  1
  Y  Y6  1  0.50000000  0.48419595  0.15515813  1
  Y  Y7  1  0.00000000  0.27394205  0.43375479  1
  Y  Y8  1  0.00000000  0.01580405  0.65515813  1
  Y  Y9  1  0.50000000  0.22605795  0.93375479  1
  Y  Y10  1  0.00000000  0.73090562  0.75000000  1
  Y  Y11  1  0.00000000  0.72605795  0.56624521  1
  Y  Y12  1  0.00000000  0.98419595  0.34484187  1
  Y  Y13  1  0.50000000  0.76909438  0.25000000  1
  Y  Y14  1  0.50000000  0.77394205  0.06624521  1
  Y  Y15  1  0.50000000  0.51580405  0.84484187  1
  Y  Y16  1  0.00000000  0.98419595  0.15515813  1
  Y  Y17  1  0.50000000  0.77394205  0.43375479  1
  Y  Y18  1  0.50000000  0.51580405  0.65515813  1
  Y  Y19  1  0.00000000  0.72605795  0.93375479  1
  Ga  Ga20  1  0.00000000  0.00000000  0.00000000  1
  Ga  Ga21  1  0.00000000  0.00000000  0.50000000  1
  Ga  Ga22  1  0.50000000  0.50000000  0.00000000  1
  Ga  Ga23  1  0.50000000  0.50000000  0.50000000  1
  Co  Co24  1  0.50000000  0.17579528  0.15178399  1
  Co  Co25  1  0.00000000  0.43379429  0.94702633  1
  Co  Co26  1  0.50000000  0.07344560  0.25000000  1
  Co  Co27  1  0.50000000  0.06620571  0.44702633  1
  Co  Co28  1  0.00000000  0.42655440  0.75000000  1
  Co  Co29  1  0.50000000  0.06620571  0.05297367  1
  Co  Co30  1  0.00000000  0.32420472  0.84821601  1
  Co  Co31  1  0.00000000  0.32420472  0.65178399  1
  Co  Co32  1  0.00000000  0.43379429  0.55297367  1
  Co  Co33  1  0.50000000  0.17579528  0.34821601  1
  Co  Co34  1  0.00000000  0.67579528  0.15178399  1
  Co  Co35  1  0.50000000  0.93379429  0.94702633  1
  Co  Co36  1  0.00000000  0.57344560  0.25000000  1
  Co  Co37  1  0.00000000  0.56620571  0.44702633  1
  Co  Co38  1  0.50000000  0.92655440  0.75000000  1
  Co  Co39  1  0.00000000  0.56620571  0.05297367  1
  Co  Co40  1  0.50000000  0.82420472  0.84821601  1
  Co  Co41  1  0.50000000  0.82420472  0.65178399  1
  Co  Co42  1  0.50000000  0.93379429  0.55297367  1
  Co  Co43  1  0.00000000  0.67579528  0.34821601  1
