# generated using pymatgen
data_CaAg
_symmetry_space_group_name_H-M   'P 1'
_cell_length_a   4.04498483
_cell_length_b   11.50511700
_cell_length_c   4.61205005
_cell_angle_alpha   90.00000000
_cell_angle_beta   90.00000000
_cell_angle_gamma   90.00000000
_symmetry_Int_Tables_number   1
_chemical_formula_structural   CaAg
_chemical_formula_sum   'Ca4 Ag4'
_cell_volume   214.63569477
_cell_formula_units_Z   4
loop_
 _symmetry_equiv_pos_site_id
 _symmetry_equiv_pos_as_xyz
  1  'x, y, z'
loop_
 _atom_site_type_symbol
 _atom_site_label
 _atom_site_symmetry_multiplicity
 _atom_site_fract_x
 _atom_site_fract_y
 _atom_site_fract_z
 _atom_site_occupancy
  Ca  Ca0  1  0.50000000  0.35797137  0.75000000  1
  Ca  Ca1  1  0.00000000  0.14202863  0.25000000  1
  Ca  Ca2  1  0.00000000  0.85797137  0.75000000  1
  Ca  Ca3  1  0.50000000  0.64202863  0.25000000  1
  Ag  Ag4  1  0.50000000  0.07403036  0.75000000  1
  Ag  Ag5  1  0.00000000  0.42596965  0.25000000  1
  Ag  Ag6  1  0.00000000  0.57403035  0.75000000  1
  Ag  Ag7  1  0.50000000  0.92596965  0.25000000  1
