# generated using pymatgen
data_CrTe3
_symmetry_space_group_name_H-M   'P 1'
_cell_length_a   8.20690326
_cell_length_b   11.55750347
_cell_length_c   11.68840163
_cell_angle_alpha   90.00000000
_cell_angle_beta   117.85775589
_cell_angle_gamma   90.00000000
_symmetry_Int_Tables_number   1
_chemical_formula_structural   CrTe3
_chemical_formula_sum   'Cr8 Te24'
_cell_volume   980.17804187
_cell_formula_units_Z   8
loop_
 _symmetry_equiv_pos_site_id
 _symmetry_equiv_pos_as_xyz
  1  'x, y, z'
loop_
 _atom_site_type_symbol
 _atom_site_label
 _atom_site_symmetry_multiplicity
 _atom_site_fract_x
 _atom_site_fract_y
 _atom_site_fract_z
 _atom_site_occupancy
  Cr  Cr0  1  0.50183825  0.99975414  0.17402325  1
  Cr  Cr1  1  0.49816175  0.49975414  0.32597675  1
  Cr  Cr2  1  0.49816175  0.00024586  0.82597675  1
  Cr  Cr3  1  0.50183825  0.50024586  0.67402325  1
  Cr  Cr4  1  0.51850550  0.71581118  0.00613106  1
  Cr  Cr5  1  0.48149450  0.21581118  0.49386894  1
  Cr  Cr6  1  0.48149450  0.28418882  0.99386894  1
  Cr  Cr7  1  0.51850550  0.78418882  0.50613106  1
  Te  Te8  1  0.70788069  0.09385966  0.06737865  1
  Te  Te9  1  0.29211931  0.59385966  0.43262135  1
  Te  Te10  1  0.29211931  0.90614034  0.93262135  1
  Te  Te11  1  0.70788069  0.40614034  0.56737865  1
  Te  Te12  1  0.75040287  0.67721332  0.73651842  1
  Te  Te13  1  0.24959713  0.17721332  0.76348158  1
  Te  Te14  1  0.24959713  0.32278668  0.26348158  1
  Te  Te15  1  0.75040287  0.82278668  0.23651842  1
  Te  Te16  1  0.74973390  0.82531073  0.92886012  1
  Te  Te17  1  0.25026610  0.32531073  0.57113988  1
  Te  Te18  1  0.25026610  0.17468927  0.07113988  1
  Te  Te19  1  0.74973390  0.67468927  0.42886012  1
  Te  Te20  1  0.70442158  0.38399987  0.90233275  1
  Te  Te21  1  0.29557842  0.88399987  0.59766725  1
  Te  Te22  1  0.29557842  0.61600013  0.09766725  1
  Te  Te23  1  0.70442158  0.11600013  0.40233275  1
  Te  Te24  1  0.79528755  0.55159997  0.09763785  1
  Te  Te25  1  0.20471245  0.05159997  0.40236215  1
  Te  Te26  1  0.20471245  0.44840003  0.90236215  1
  Te  Te27  1  0.79528755  0.94840003  0.59763785  1
  Te  Te28  1  0.70227142  0.38384275  0.23157582  1
  Te  Te29  1  0.29772858  0.88384275  0.26842418  1
  Te  Te30  1  0.29772858  0.61615725  0.76842418  1
  Te  Te31  1  0.70227142  0.11615725  0.73157582  1
