# generated using pymatgen
data_Ca(Ga3Te5)2
_symmetry_space_group_name_H-M   'P 1'
_cell_length_a   14.83483189
_cell_length_b   14.64247358
_cell_length_c   10.35844535
_cell_angle_alpha   90.00000000
_cell_angle_beta   90.24647154
_cell_angle_gamma   90.00000000
_symmetry_Int_Tables_number   1
_chemical_formula_structural   Ca(Ga3Te5)2
_chemical_formula_sum   'Ca4 Ga24 Te40'
_cell_volume   2250.02653003
_cell_formula_units_Z   4
loop_
 _symmetry_equiv_pos_site_id
 _symmetry_equiv_pos_as_xyz
  1  'x, y, z'
loop_
 _atom_site_type_symbol
 _atom_site_label
 _atom_site_symmetry_multiplicity
 _atom_site_fract_x
 _atom_site_fract_y
 _atom_site_fract_z
 _atom_site_occupancy
  Ca  Ca0  1  0.12980267  0.87129223  0.74849939  1
  Ca  Ca1  1  0.87019733  0.87129223  0.25150061  1
  Ca  Ca2  1  0.62980267  0.37129223  0.74849939  1
  Ca  Ca3  1  0.37019733  0.37129223  0.25150061  1
  Ga  Ga4  1  0.04775938  0.04567537  0.16731397  1
  Ga  Ga5  1  0.28059426  0.89710976  0.16149292  1
  Ga  Ga6  1  0.20525805  0.11005845  0.87787450  1
  Ga  Ga7  1  0.24616564  0.15795963  0.25264531  1
  Ga  Ga8  1  0.45726453  0.03437950  0.33752587  1
  Ga  Ga9  1  0.54273547  0.03437950  0.66247413  1
  Ga  Ga10  1  0.35620341  0.22615075  0.57403504  1
  Ga  Ga11  1  0.71940574  0.89710976  0.83850708  1
  Ga  Ga12  1  0.64379659  0.22615075  0.42596496  1
  Ga  Ga13  1  0.79474195  0.11005845  0.12212550  1
  Ga  Ga14  1  0.75383436  0.15795963  0.74735469  1
  Ga  Ga15  1  0.95224062  0.04567537  0.83268603  1
  Ga  Ga16  1  0.54775938  0.54567537  0.16731397  1
  Ga  Ga17  1  0.78059426  0.39710976  0.16149292  1
  Ga  Ga18  1  0.70525805  0.61005845  0.87787450  1
  Ga  Ga19  1  0.74616564  0.65795963  0.25264531  1
  Ga  Ga20  1  0.95726453  0.53437950  0.33752587  1
  Ga  Ga21  1  0.04273547  0.53437950  0.66247413  1
  Ga  Ga22  1  0.85620341  0.72615075  0.57403504  1
  Ga  Ga23  1  0.21940574  0.39710976  0.83850708  1
  Ga  Ga24  1  0.14379659  0.72615075  0.42596496  1
  Ga  Ga25  1  0.29474195  0.61005845  0.12212550  1
  Ga  Ga26  1  0.25383436  0.65795963  0.74735469  1
  Ga  Ga27  1  0.45224062  0.54567537  0.83268603  1
  Te  Te28  1  0.28070971  0.77953007  0.56738512  1
  Te  Te29  1  0.37765902  0.69529906  0.93027261  1
  Te  Te30  1  0.18116489  0.99541040  0.32429058  1
  Te  Te31  1  0.09006088  0.08375726  0.68673398  1
  Te  Te32  1  0.29130681  0.95576225  0.91989373  1
  Te  Te33  1  0.43883681  0.86938893  0.25786365  1
  Te  Te34  1  0.62234098  0.69529906  0.06972739  1
  Te  Te35  1  0.37438200  0.04816967  0.56920060  1
  Te  Te36  1  0.56116319  0.86938893  0.74213635  1
  Te  Te37  1  0.71929029  0.77953007  0.43261488  1
  Te  Te38  1  0.32357202  0.24573549  0.82675547  1
  Te  Te39  1  0.41060663  0.15857014  0.16683711  1
  Te  Te40  1  0.70869319  0.95576225  0.08010627  1
  Te  Te41  1  0.62561800  0.04816967  0.43079940  1
  Te  Te42  1  0.58939337  0.15857014  0.83316289  1
  Te  Te43  1  0.81883511  0.99541040  0.67570942  1
  Te  Te44  1  0.50000000  0.32387598  0.50000000  1
  Te  Te45  1  0.50000000  0.41843507  0.00000000  1
  Te  Te46  1  0.67642798  0.24573549  0.17324453  1
  Te  Te47  1  0.90993912  0.08375726  0.31326602  1
  Te  Te48  1  0.78070971  0.27953007  0.56738512  1
  Te  Te49  1  0.87765902  0.19529906  0.93027261  1
  Te  Te50  1  0.68116489  0.49541040  0.32429058  1
  Te  Te51  1  0.59006088  0.58375726  0.68673398  1
  Te  Te52  1  0.79130681  0.45576225  0.91989373  1
  Te  Te53  1  0.93883681  0.36938893  0.25786365  1
  Te  Te54  1  0.12234098  0.19529906  0.06972739  1
  Te  Te55  1  0.87438200  0.54816967  0.56920060  1
  Te  Te56  1  0.06116319  0.36938893  0.74213635  1
  Te  Te57  1  0.21929029  0.27953007  0.43261488  1
  Te  Te58  1  0.82357202  0.74573549  0.82675547  1
  Te  Te59  1  0.91060663  0.65857014  0.16683711  1
  Te  Te60  1  0.20869319  0.45576225  0.08010627  1
  Te  Te61  1  0.12561800  0.54816967  0.43079940  1
  Te  Te62  1  0.08939337  0.65857014  0.83316289  1
  Te  Te63  1  0.31883511  0.49541040  0.67570942  1
  Te  Te64  1  0.00000000  0.82387598  0.50000000  1
  Te  Te65  1  0.00000000  0.91843507  0.00000000  1
  Te  Te66  1  0.17642798  0.74573549  0.17324453  1
  Te  Te67  1  0.40993912  0.58375726  0.31326602  1
