# generated using pymatgen
data_Ga5(PS)3
_symmetry_space_group_name_H-M   'P 1'
_cell_length_a   3.78829062
_cell_length_b   5.42386489
_cell_length_c   11.33132918
_cell_angle_alpha   90.00000000
_cell_angle_beta   90.00000000
_cell_angle_gamma   90.00000000
_symmetry_Int_Tables_number   1
_chemical_formula_structural   Ga5(PS)3
_chemical_formula_sum   'Ga5 P3 S3'
_cell_volume   232.82682011
_cell_formula_units_Z   1
loop_
 _symmetry_equiv_pos_site_id
 _symmetry_equiv_pos_as_xyz
  1  'x, y, z'
loop_
 _atom_site_type_symbol
 _atom_site_label
 _atom_site_symmetry_multiplicity
 _atom_site_fract_x
 _atom_site_fract_y
 _atom_site_fract_z
 _atom_site_occupancy
  Ga  Ga0  1  0.00000000  0.99914669  0.84230984  1
  Ga  Ga1  1  0.00000000  0.99914669  0.15769016  1
  Ga  Ga2  1  0.00000000  0.01003427  0.50000000  1
  Ga  Ga3  1  0.50000000  0.50595284  0.33016208  1
  Ga  Ga4  1  0.50000000  0.50595284  0.66983792  1
  P  P5  1  0.00000000  0.25271030  0.32742735  1
  P  P6  1  0.50000000  0.75523284  0.50000000  1
  P  P7  1  0.00000000  0.25271030  0.67257265  1
  S  S8  1  0.50000000  0.74053088  0.83971735  1
  S  S9  1  0.00000000  0.23819617  0.00000000  1
  S  S10  1  0.50000000  0.74053088  0.16028265  1
