# generated using pymatgen
data_Tl2Te3
_symmetry_space_group_name_H-M   'P 1'
_cell_length_a   12.09678761
_cell_length_b   6.81711161
_cell_length_c   10.45717837
_cell_angle_alpha   90.00000000
_cell_angle_beta   122.33411807
_cell_angle_gamma   90.00000000
_symmetry_Int_Tables_number   1
_chemical_formula_structural   Tl2Te3
_chemical_formula_sum   'Tl8 Te12'
_cell_volume   728.63938244
_cell_formula_units_Z   4
loop_
 _symmetry_equiv_pos_site_id
 _symmetry_equiv_pos_as_xyz
  1  'x, y, z'
loop_
 _atom_site_type_symbol
 _atom_site_label
 _atom_site_symmetry_multiplicity
 _atom_site_fract_x
 _atom_site_fract_y
 _atom_site_fract_z
 _atom_site_occupancy
  Tl  Tl0  1  0.16056618  0.58388064  0.29571637  1
  Tl  Tl1  1  0.23897093  0.99499781  0.04466298  1
  Tl  Tl2  1  0.23897093  0.00500219  0.54466298  1
  Tl  Tl3  1  0.16056618  0.41611936  0.79571637  1
  Tl  Tl4  1  0.66056618  0.08388064  0.29571637  1
  Tl  Tl5  1  0.73897093  0.49499781  0.04466298  1
  Tl  Tl6  1  0.73897093  0.50500219  0.54466298  1
  Tl  Tl7  1  0.66056618  0.91611936  0.79571637  1
  Te  Te8  1  0.96755805  0.23020533  0.01854763  1
  Te  Te9  1  0.40964214  0.54411325  0.74752266  1
  Te  Te10  1  0.44825423  0.86026453  0.40454836  1
  Te  Te11  1  0.46755805  0.26979467  0.51854763  1
  Te  Te12  1  0.90964213  0.95588675  0.24752266  1
  Te  Te13  1  0.44825423  0.13973547  0.90454836  1
  Te  Te14  1  0.46755805  0.73020533  0.01854763  1
  Te  Te15  1  0.90964213  0.04411325  0.74752266  1
  Te  Te16  1  0.94825423  0.36026453  0.40454836  1
  Te  Te17  1  0.96755805  0.76979467  0.51854763  1
  Te  Te18  1  0.40964213  0.45588675  0.24752266  1
  Te  Te19  1  0.94825423  0.63973547  0.90454836  1
