# generated using pymatgen
data_CdCl2
_symmetry_space_group_name_H-M   'P 1'
_cell_length_a   4.11211265
_cell_length_b   4.11530797
_cell_length_c   5.16723953
_cell_angle_alpha   89.75176943
_cell_angle_beta   89.58162790
_cell_angle_gamma   89.90869220
_symmetry_Int_Tables_number   1
_chemical_formula_structural   CdCl2
_chemical_formula_sum   'Cd1 Cl2'
_cell_volume   87.43992046
_cell_formula_units_Z   1
loop_
 _symmetry_equiv_pos_site_id
 _symmetry_equiv_pos_as_xyz
  1  'x, y, z'
loop_
 _atom_site_type_symbol
 _atom_site_label
 _atom_site_symmetry_multiplicity
 _atom_site_fract_x
 _atom_site_fract_y
 _atom_site_fract_z
 _atom_site_occupancy
  Cd  Cd0  1  0.83487834  0.15918511  0.99284558  1
  Cl  Cl1  1  0.33037814  0.16628932  0.26624260  1
  Cl  Cl2  1  0.82063552  0.66166458  0.72032984  1
