# generated using pymatgen
data_Nb3IrSe8
_symmetry_space_group_name_H-M   'P 1'
_cell_length_a   12.13926994
_cell_length_b   6.97839502
_cell_length_c   14.37862563
_cell_angle_alpha   90.00000000
_cell_angle_beta   113.82125738
_cell_angle_gamma   90.00000000
_symmetry_Int_Tables_number   1
_chemical_formula_structural   Nb3IrSe8
_chemical_formula_sum   'Nb12 Ir4 Se32'
_cell_volume   1114.28515146
_cell_formula_units_Z   4
loop_
 _symmetry_equiv_pos_site_id
 _symmetry_equiv_pos_as_xyz
  1  'x, y, z'
loop_
 _atom_site_type_symbol
 _atom_site_label
 _atom_site_symmetry_multiplicity
 _atom_site_fract_x
 _atom_site_fract_y
 _atom_site_fract_z
 _atom_site_occupancy
  Nb  Nb0  1  0.11387624  0.86823315  0.00020772  1
  Nb  Nb1  1  0.61387624  0.63176685  0.50020772  1
  Nb  Nb2  1  0.87386363  0.09380639  0.99808699  1
  Nb  Nb3  1  0.10814442  0.39348063  0.00130314  1
  Nb  Nb4  1  0.60814442  0.10651937  0.50130314  1
  Nb  Nb5  1  0.37386363  0.40619361  0.49808699  1
  Nb  Nb6  1  0.61387624  0.36823315  0.00020772  1
  Nb  Nb7  1  0.11387624  0.13176685  0.50020772  1
  Nb  Nb8  1  0.37386363  0.59380639  0.99808699  1
  Nb  Nb9  1  0.60814442  0.89348063  0.00130314  1
  Nb  Nb10  1  0.10814442  0.60651937  0.50130314  1
  Nb  Nb11  1  0.87386363  0.90619361  0.49808699  1
  Ir  Ir12  1  0.39700038  0.84973281  0.49957290  1
  Ir  Ir13  1  0.89700038  0.65026719  0.99957290  1
  Ir  Ir14  1  0.89700038  0.34973281  0.49957290  1
  Ir  Ir15  1  0.39700038  0.15026719  0.99957290  1
  Se  Se16  1  0.89818120  0.88170861  0.86259378  1
  Se  Se17  1  0.35042042  0.10460519  0.60457501  1
  Se  Se18  1  0.64185761  0.11846426  0.87482192  1
  Se  Se19  1  0.89039376  0.38232009  0.87767238  1
  Se  Se20  1  0.67147545  0.36885989  0.39536876  1
  Se  Se21  1  0.61045615  0.86735355  0.63615819  1
  Se  Se22  1  0.67147545  0.63114011  0.89536876  1
  Se  Se23  1  0.39818120  0.61829139  0.36259378  1
  Se  Se24  1  0.11045615  0.63264645  0.13615819  1
  Se  Se25  1  0.34748863  0.63836495  0.62186117  1
  Se  Se26  1  0.59360457  0.37767716  0.62599103  1
  Se  Se27  1  0.34748863  0.36163505  0.12186117  1
  Se  Se28  1  0.64185761  0.88153574  0.37482192  1
  Se  Se29  1  0.39039376  0.11767991  0.37767238  1
  Se  Se30  1  0.09360457  0.12232284  0.12599103  1
  Se  Se31  1  0.35042042  0.89539481  0.10457501  1
  Se  Se32  1  0.39818120  0.38170861  0.86259378  1
  Se  Se33  1  0.85042042  0.60460519  0.60457501  1
  Se  Se34  1  0.14185761  0.61846426  0.87482192  1
  Se  Se35  1  0.39039376  0.88232009  0.87767238  1
  Se  Se36  1  0.17147545  0.86885989  0.39536876  1
  Se  Se37  1  0.11045615  0.36735355  0.63615819  1
  Se  Se38  1  0.17147545  0.13114011  0.89536876  1
  Se  Se39  1  0.89818120  0.11829139  0.36259378  1
  Se  Se40  1  0.61045616  0.13264645  0.13615819  1
  Se  Se41  1  0.84748863  0.13836495  0.62186117  1
  Se  Se42  1  0.09360457  0.87767716  0.62599103  1
  Se  Se43  1  0.84748863  0.86163505  0.12186117  1
  Se  Se44  1  0.14185761  0.38153574  0.37482192  1
  Se  Se45  1  0.89039376  0.61767991  0.37767238  1
  Se  Se46  1  0.59360457  0.62232284  0.12599103  1
  Se  Se47  1  0.85042042  0.39539481  0.10457501  1
