# generated using pymatgen
data_CaAlH5
_symmetry_space_group_name_H-M   'P 1'
_cell_length_a   4.36051088
_cell_length_b   4.94678399
_cell_length_c   12.12392306
_cell_angle_alpha   90.00000000
_cell_angle_beta   90.00000000
_cell_angle_gamma   90.00000000
_symmetry_Int_Tables_number   1
_chemical_formula_structural   CaAlH5
_chemical_formula_sum   'Ca4 Al4 H20'
_cell_volume   261.51914795
_cell_formula_units_Z   4
loop_
 _symmetry_equiv_pos_site_id
 _symmetry_equiv_pos_as_xyz
  1  'x, y, z'
loop_
 _atom_site_type_symbol
 _atom_site_label
 _atom_site_symmetry_multiplicity
 _atom_site_fract_x
 _atom_site_fract_y
 _atom_site_fract_z
 _atom_site_occupancy
  Ca  Ca0  1  0.71678906  0.64020047  0.83982353  1
  Ca  Ca1  1  0.21678906  0.85979953  0.16017647  1
  Ca  Ca2  1  0.78321094  0.35979953  0.33982353  1
  Ca  Ca3  1  0.28321094  0.14020047  0.66017647  1
  Al  Al4  1  0.31350560  0.12504054  0.91360000  1
  Al  Al5  1  0.81350560  0.37495946  0.08640000  1
  Al  Al6  1  0.18649440  0.87495946  0.41360000  1
  Al  Al7  1  0.68649440  0.62504054  0.58640000  1
  H  H8  1  0.47622869  0.87641060  0.98679180  1
  H  H9  1  0.97622869  0.62358940  0.01320820  1
  H  H10  1  0.02377131  0.12358940  0.48679180  1
  H  H11  1  0.52377131  0.37641060  0.51320820  1
  H  H12  1  0.14666802  0.90218838  0.82577509  1
  H  H13  1  0.64666802  0.59781162  0.17422491  1
  H  H14  1  0.35333198  0.09781162  0.32577509  1
  H  H15  1  0.85333198  0.40218838  0.67422491  1
  H  H16  1  0.67862299  0.10961110  0.16016777  1
  H  H17  1  0.17862299  0.39038890  0.83983223  1
  H  H18  1  0.82137701  0.89038890  0.66016777  1
  H  H19  1  0.32137701  0.60961110  0.33983223  1
  H  H20  1  0.61290888  0.12535967  0.82079207  1
  H  H21  1  0.11290888  0.37464033  0.17920793  1
  H  H22  1  0.88709112  0.87464033  0.32079207  1
  H  H23  1  0.38709112  0.62535967  0.67920793  1
  H  H24  1  0.02142186  0.12856741  0.01047008  1
  H  H25  1  0.52142186  0.37143259  0.98952992  1
  H  H26  1  0.47857814  0.87143259  0.51047008  1
  H  H27  1  0.97857814  0.62856741  0.48952992  1
