# generated using pymatgen
data_Ni2RhS4
_symmetry_space_group_name_H-M   'P 1'
_cell_length_a   6.71319706
_cell_length_b   6.77454357
_cell_length_c   9.53228468
_cell_angle_alpha   90.00000000
_cell_angle_beta   90.00000000
_cell_angle_gamma   90.00000000
_symmetry_Int_Tables_number   1
_chemical_formula_structural   Ni2RhS4
_chemical_formula_sum   'Ni8 Rh4 S16'
_cell_volume   433.51730688
_cell_formula_units_Z   4
loop_
 _symmetry_equiv_pos_site_id
 _symmetry_equiv_pos_as_xyz
  1  'x, y, z'
loop_
 _atom_site_type_symbol
 _atom_site_label
 _atom_site_symmetry_multiplicity
 _atom_site_fract_x
 _atom_site_fract_y
 _atom_site_fract_z
 _atom_site_occupancy
  Ni  Ni0  1  0.50000000  0.25000000  0.62541159  1
  Ni  Ni1  1  0.00000000  0.25000000  0.87458841  1
  Ni  Ni2  1  0.75000000  0.25000000  0.25000000  1
  Ni  Ni3  1  0.25000000  0.25000000  0.25000000  1
  Ni  Ni4  1  0.00000000  0.75000000  0.12541159  1
  Ni  Ni5  1  0.50000000  0.75000000  0.37458841  1
  Ni  Ni6  1  0.25000000  0.75000000  0.75000000  1
  Ni  Ni7  1  0.75000000  0.75000000  0.75000000  1
  Rh  Rh8  1  0.50000000  0.50000000  0.00000000  1
  Rh  Rh9  1  0.50000000  0.00000000  0.00000000  1
  Rh  Rh10  1  0.00000000  0.00000000  0.50000000  1
  Rh  Rh11  1  0.00000000  0.50000000  0.50000000  1
  S  S12  1  0.74059530  0.25000000  0.01075848  1
  S  S13  1  0.50000000  0.48388032  0.24696956  1
  S  S14  1  0.25940470  0.25000000  0.01075848  1
  S  S15  1  0.50000000  0.01611968  0.24696956  1
  S  S16  1  0.00000000  0.48388032  0.25303044  1
  S  S17  1  0.00000000  0.01611968  0.25303044  1
  S  S18  1  0.24059530  0.25000000  0.48924152  1
  S  S19  1  0.75940470  0.25000000  0.48924152  1
  S  S20  1  0.24059530  0.75000000  0.51075848  1
  S  S21  1  0.00000000  0.98388032  0.74696956  1
  S  S22  1  0.75940470  0.75000000  0.51075848  1
  S  S23  1  0.00000000  0.51611968  0.74696956  1
  S  S24  1  0.50000000  0.98388032  0.75303044  1
  S  S25  1  0.50000000  0.51611968  0.75303044  1
  S  S26  1  0.74059530  0.75000000  0.98924152  1
  S  S27  1  0.25940470  0.75000000  0.98924152  1
