# generated using pymatgen
data_Ni3Sn2
_symmetry_space_group_name_H-M   'P 1'
_cell_length_a   5.15978058
_cell_length_b   7.09907483
_cell_length_c   8.11883105
_cell_angle_alpha   90.00000000
_cell_angle_beta   90.00000000
_cell_angle_gamma   90.00000000
_symmetry_Int_Tables_number   1
_chemical_formula_structural   Ni3Sn2
_chemical_formula_sum   'Ni12 Sn8'
_cell_volume   297.39008941
_cell_formula_units_Z   4
loop_
 _symmetry_equiv_pos_site_id
 _symmetry_equiv_pos_as_xyz
  1  'x, y, z'
loop_
 _atom_site_type_symbol
 _atom_site_label
 _atom_site_symmetry_multiplicity
 _atom_site_fract_x
 _atom_site_fract_y
 _atom_site_fract_z
 _atom_site_occupancy
  Ni  Ni0  1  0.75000000  0.90791647  0.37193338  1
  Ni  Ni1  1  0.25000000  0.09208353  0.62806662  1
  Ni  Ni2  1  0.99600007  0.23559645  0.37641761  1
  Ni  Ni3  1  0.49600007  0.76440355  0.62358239  1
  Ni  Ni4  1  0.00399993  0.26440355  0.87641761  1
  Ni  Ni5  1  0.49600007  0.26440355  0.87641761  1
  Ni  Ni6  1  0.00399993  0.76440355  0.62358239  1
  Ni  Ni7  1  0.50399993  0.23559645  0.37641761  1
  Ni  Ni8  1  0.99600007  0.73559645  0.12358239  1
  Ni  Ni9  1  0.75000000  0.40791647  0.12806662  1
  Ni  Ni10  1  0.50399993  0.73559645  0.12358239  1
  Ni  Ni11  1  0.25000000  0.59208353  0.87193338  1
  Sn  Sn12  1  0.75000000  0.56047946  0.40397825  1
  Sn  Sn13  1  0.75000000  0.09579508  0.64084233  1
  Sn  Sn14  1  0.25000000  0.90420492  0.35915767  1
  Sn  Sn15  1  0.25000000  0.40420492  0.14084233  1
  Sn  Sn16  1  0.75000000  0.59579508  0.85915767  1
  Sn  Sn17  1  0.75000000  0.06047946  0.09602175  1
  Sn  Sn18  1  0.25000000  0.43952054  0.59602175  1
  Sn  Sn19  1  0.25000000  0.93952054  0.90397825  1
