# generated using pymatgen
data_Y(Sn3Ru2)2
_symmetry_space_group_name_H-M   'P 1'
_cell_length_a   6.87240022
_cell_length_b   6.87240022
_cell_length_c   9.81813462
_cell_angle_alpha   90.00000000
_cell_angle_beta   90.00000000
_cell_angle_gamma   90.00000000
_symmetry_Int_Tables_number   1
_chemical_formula_structural   Y(Sn3Ru2)2
_chemical_formula_sum   'Y2 Sn12 Ru8'
_cell_volume   463.70936626
_cell_formula_units_Z   2
loop_
 _symmetry_equiv_pos_site_id
 _symmetry_equiv_pos_as_xyz
  1  'x, y, z'
loop_
 _atom_site_type_symbol
 _atom_site_label
 _atom_site_symmetry_multiplicity
 _atom_site_fract_x
 _atom_site_fract_y
 _atom_site_fract_z
 _atom_site_occupancy
  Y  Y0  1  0.00000000  0.00000000  0.00000000  1
  Y  Y1  1  0.50000000  0.50000000  0.50000000  1
  Sn  Sn2  1  0.82555453  0.17444547  0.70631066  1
  Sn  Sn3  1  0.17444547  0.82555453  0.70631066  1
  Sn  Sn4  1  0.32555453  0.32555453  0.79368934  1
  Sn  Sn5  1  0.50000000  0.00000000  0.00000000  1
  Sn  Sn6  1  0.67444547  0.67444547  0.79368934  1
  Sn  Sn7  1  0.00000000  0.50000000  0.00000000  1
  Sn  Sn8  1  0.32555453  0.67444547  0.20631066  1
  Sn  Sn9  1  0.67444547  0.32555453  0.20631066  1
  Sn  Sn10  1  0.82555453  0.82555453  0.29368934  1
  Sn  Sn11  1  0.00000000  0.50000000  0.50000000  1
  Sn  Sn12  1  0.17444547  0.17444547  0.29368934  1
  Sn  Sn13  1  0.50000000  0.00000000  0.50000000  1
  Ru  Ru14  1  0.67403526  0.32596474  0.92262789  1
  Ru  Ru15  1  0.82596474  0.82596474  0.57737211  1
  Ru  Ru16  1  0.32596474  0.67403526  0.92262789  1
  Ru  Ru17  1  0.17403526  0.17403526  0.57737211  1
  Ru  Ru18  1  0.17403526  0.82596474  0.42262789  1
  Ru  Ru19  1  0.32596474  0.32596474  0.07737211  1
  Ru  Ru20  1  0.82596474  0.17403526  0.42262789  1
  Ru  Ru21  1  0.67403526  0.67403526  0.07737211  1
