# generated using pymatgen
data_Cd2P3Cl
_symmetry_space_group_name_H-M   'P 1'
_cell_length_a   8.03645249
_cell_length_b   9.06016386
_cell_length_c   7.59438336
_cell_angle_alpha   90.00000000
_cell_angle_beta   100.56573315
_cell_angle_gamma   90.00000000
_symmetry_Int_Tables_number   1
_chemical_formula_structural   Cd2P3Cl
_chemical_formula_sum   'Cd8 P12 Cl4'
_cell_volume   543.58370849
_cell_formula_units_Z   4
loop_
 _symmetry_equiv_pos_site_id
 _symmetry_equiv_pos_as_xyz
  1  'x, y, z'
loop_
 _atom_site_type_symbol
 _atom_site_label
 _atom_site_symmetry_multiplicity
 _atom_site_fract_x
 _atom_site_fract_y
 _atom_site_fract_z
 _atom_site_occupancy
  Cd  Cd0  1  0.25668985  0.84814785  0.71323719  1
  Cd  Cd1  1  0.74331015  0.84814785  0.78676281  1
  Cd  Cd2  1  0.74331015  0.15185215  0.28676281  1
  Cd  Cd3  1  0.25668985  0.15185215  0.21323719  1
  Cd  Cd4  1  0.75668985  0.34814785  0.71323719  1
  Cd  Cd5  1  0.24331015  0.34814785  0.78676281  1
  Cd  Cd6  1  0.24331015  0.65185215  0.28676281  1
  Cd  Cd7  1  0.75668985  0.65185215  0.21323719  1
  P  P8  1  0.61534153  0.04600470  0.96518591  1
  P  P9  1  0.38465847  0.04600470  0.53481409  1
  P  P10  1  0.38465847  0.95399530  0.03481409  1
  P  P11  1  0.61534153  0.95399530  0.46518591  1
  P  P12  1  0.50000000  0.19526280  0.75000000  1
  P  P13  1  0.50000000  0.80473720  0.25000000  1
  P  P14  1  0.11534153  0.54600471  0.96518591  1
  P  P15  1  0.88465847  0.54600471  0.53481409  1
  P  P16  1  0.88465847  0.45399530  0.03481409  1
  P  P17  1  0.11534153  0.45399530  0.46518591  1
  P  P18  1  0.00000000  0.69526280  0.75000000  1
  P  P19  1  0.00000000  0.30473720  0.25000000  1
  Cl  Cl20  1  0.50000000  0.63606984  0.75000000  1
  Cl  Cl21  1  0.50000000  0.36393016  0.25000000  1
  Cl  Cl22  1  0.00000000  0.13606984  0.75000000  1
  Cl  Cl23  1  0.00000000  0.86393016  0.25000000  1
