# generated using pymatgen
data_Ti6AgS12
_symmetry_space_group_name_H-M   'P 1'
_cell_length_a   13.88803322
_cell_length_b   10.28757770
_cell_length_c   5.94378770
_cell_angle_alpha   90.00000000
_cell_angle_beta   115.16233962
_cell_angle_gamma   90.00000000
_symmetry_Int_Tables_number   1
_chemical_formula_structural   Ti6AgS12
_chemical_formula_sum   'Ti12 Ag2 S24'
_cell_volume   768.62933255
_cell_formula_units_Z   2
loop_
 _symmetry_equiv_pos_site_id
 _symmetry_equiv_pos_as_xyz
  1  'x, y, z'
loop_
 _atom_site_type_symbol
 _atom_site_label
 _atom_site_symmetry_multiplicity
 _atom_site_fract_x
 _atom_site_fract_y
 _atom_site_fract_z
 _atom_site_occupancy
  Ti  Ti0  1  0.75152461  0.83340745  0.74665444  1
  Ti  Ti1  1  0.75625251  0.00000000  0.25288998  1
  Ti  Ti2  1  0.75152461  0.16659255  0.74665444  1
  Ti  Ti3  1  0.24847539  0.83340745  0.25334556  1
  Ti  Ti4  1  0.24374749  0.00000000  0.74711002  1
  Ti  Ti5  1  0.24847539  0.16659255  0.25334556  1
  Ti  Ti6  1  0.25152461  0.33340745  0.74665444  1
  Ti  Ti7  1  0.25625251  0.50000000  0.25288998  1
  Ti  Ti8  1  0.25152461  0.66659255  0.74665444  1
  Ti  Ti9  1  0.74847539  0.33340745  0.25334556  1
  Ti  Ti10  1  0.74374749  0.50000000  0.74711002  1
  Ti  Ti11  1  0.74847539  0.66659255  0.25334556  1
  Ag  Ag12  1  0.50000000  0.00000000  0.00000000  1
  Ag  Ag13  1  0.00000000  0.50000000  0.00000000  1
  S  S14  1  0.63608780  0.66771381  0.47052242  1
  S  S15  1  0.63917617  0.83227027  0.97067415  1
  S  S16  1  0.63891446  0.00000000  0.47478553  1
  S  S17  1  0.86379939  0.00000000  0.02684258  1
  S  S18  1  0.36391220  0.66771381  0.52947758  1
  S  S19  1  0.63917617  0.16772973  0.97067415  1
  S  S20  1  0.63608780  0.33228619  0.47052242  1
  S  S21  1  0.36082383  0.83227027  0.02932585  1
  S  S22  1  0.13620061  0.00000000  0.97315742  1
  S  S23  1  0.36108554  0.00000000  0.52521447  1
  S  S24  1  0.36082383  0.16772973  0.02932585  1
  S  S25  1  0.36391220  0.33228619  0.52947758  1
  S  S26  1  0.13608780  0.16771381  0.47052242  1
  S  S27  1  0.13917617  0.33227027  0.97067415  1
  S  S28  1  0.13891446  0.50000000  0.47478553  1
  S  S29  1  0.36379939  0.50000000  0.02684258  1
  S  S30  1  0.86391220  0.16771381  0.52947758  1
  S  S31  1  0.13917617  0.66772973  0.97067415  1
  S  S32  1  0.13608780  0.83228619  0.47052242  1
  S  S33  1  0.86082383  0.33227027  0.02932585  1
  S  S34  1  0.63620061  0.50000000  0.97315742  1
  S  S35  1  0.86108554  0.50000000  0.52521447  1
  S  S36  1  0.86082383  0.66772973  0.02932585  1
  S  S37  1  0.86391220  0.83228619  0.52947758  1
