# generated using pymatgen
data_NbZn16
_symmetry_space_group_name_H-M   'P 1'
_cell_length_a   7.61882475
_cell_length_b   11.29023027
_cell_length_c   11.50979195
_cell_angle_alpha   90.00000000
_cell_angle_beta   90.00000000
_cell_angle_gamma   90.00000000
_symmetry_Int_Tables_number   1
_chemical_formula_structural   NbZn16
_chemical_formula_sum   'Nb4 Zn64'
_cell_volume   990.05257363
_cell_formula_units_Z   4
loop_
 _symmetry_equiv_pos_site_id
 _symmetry_equiv_pos_as_xyz
  1  'x, y, z'
loop_
 _atom_site_type_symbol
 _atom_site_label
 _atom_site_symmetry_multiplicity
 _atom_site_fract_x
 _atom_site_fract_y
 _atom_site_fract_z
 _atom_site_occupancy
  Nb  Nb0  1  0.50000000  0.45232002  0.75000000  1
  Nb  Nb1  1  0.50000000  0.54767998  0.25000000  1
  Nb  Nb2  1  0.00000000  0.95232002  0.75000000  1
  Nb  Nb3  1  0.00000000  0.04767998  0.25000000  1
  Zn  Zn4  1  0.70177772  0.94806266  0.36594128  1
  Zn  Zn5  1  0.66842631  0.31326862  0.93124432  1
  Zn  Zn6  1  0.50000000  0.87997460  0.96742855  1
  Zn  Zn7  1  0.33157369  0.31326862  0.56875568  1
  Zn  Zn8  1  0.33670251  0.14534255  0.25000000  1
  Zn  Zn9  1  0.70177772  0.05193734  0.86594128  1
  Zn  Zn10  1  0.50000000  0.12002540  0.46742855  1
  Zn  Zn11  1  0.29822228  0.94806266  0.13405872  1
  Zn  Zn12  1  0.50000000  0.32447673  0.36012119  1
  Zn  Zn13  1  0.66842631  0.68673138  0.06875568  1
  Zn  Zn14  1  0.29822228  0.05193734  0.86594128  1
  Zn  Zn15  1  0.33157369  0.68673138  0.43124432  1
  Zn  Zn16  1  0.66329749  0.85465745  0.75000000  1
  Zn  Zn17  1  0.29822228  0.05193734  0.63405872  1
  Zn  Zn18  1  0.50000000  0.12002540  0.03257145  1
  Zn  Zn19  1  0.29822228  0.94806266  0.36594128  1
  Zn  Zn20  1  0.70177772  0.94806266  0.13405872  1
  Zn  Zn21  1  0.66329749  0.14534255  0.25000000  1
  Zn  Zn22  1  0.00000000  0.00000000  0.00000000  1
  Zn  Zn23  1  0.50000000  0.87997460  0.53257145  1
  Zn  Zn24  1  0.50000000  0.20903211  0.75000000  1
  Zn  Zn25  1  0.33670251  0.85465745  0.75000000  1
  Zn  Zn26  1  0.33157369  0.68673138  0.06875568  1
  Zn  Zn27  1  0.70177772  0.05193734  0.63405872  1
  Zn  Zn28  1  0.50000000  0.32447673  0.13987881  1
  Zn  Zn29  1  0.33157369  0.31326862  0.93124432  1
  Zn  Zn30  1  0.00000000  0.00000000  0.50000000  1
  Zn  Zn31  1  0.66842631  0.68673138  0.43124432  1
  Zn  Zn32  1  0.66842631  0.31326862  0.56875568  1
  Zn  Zn33  1  0.50000000  0.79096789  0.25000000  1
  Zn  Zn34  1  0.50000000  0.67552327  0.86012119  1
  Zn  Zn35  1  0.50000000  0.67552327  0.63987881  1
  Zn  Zn36  1  0.20177771  0.44806266  0.36594128  1
  Zn  Zn37  1  0.16842631  0.81326862  0.93124432  1
  Zn  Zn38  1  0.00000000  0.37997460  0.96742855  1
  Zn  Zn39  1  0.83157369  0.81326862  0.56875568  1
  Zn  Zn40  1  0.83670251  0.64534255  0.25000000  1
  Zn  Zn41  1  0.20177771  0.55193734  0.86594128  1
  Zn  Zn42  1  0.00000000  0.62002540  0.46742855  1
  Zn  Zn43  1  0.79822228  0.44806266  0.13405872  1
  Zn  Zn44  1  0.00000000  0.82447673  0.36012119  1
  Zn  Zn45  1  0.16842631  0.18673137  0.06875568  1
  Zn  Zn46  1  0.79822228  0.55193734  0.86594128  1
  Zn  Zn47  1  0.83157369  0.18673137  0.43124432  1
  Zn  Zn48  1  0.16329749  0.35465745  0.75000000  1
  Zn  Zn49  1  0.79822228  0.55193734  0.63405872  1
  Zn  Zn50  1  0.00000000  0.62002540  0.03257145  1
  Zn  Zn51  1  0.79822228  0.44806266  0.36594128  1
  Zn  Zn52  1  0.20177771  0.44806266  0.13405872  1
  Zn  Zn53  1  0.16329749  0.64534255  0.25000000  1
  Zn  Zn54  1  0.50000000  0.50000000  0.00000000  1
  Zn  Zn55  1  0.00000000  0.37997460  0.53257145  1
  Zn  Zn56  1  0.00000000  0.70903211  0.75000000  1
  Zn  Zn57  1  0.83670251  0.35465745  0.75000000  1
  Zn  Zn58  1  0.83157369  0.18673137  0.06875568  1
  Zn  Zn59  1  0.20177771  0.55193734  0.63405872  1
  Zn  Zn60  1  0.00000000  0.82447673  0.13987881  1
  Zn  Zn61  1  0.83157369  0.81326862  0.93124432  1
  Zn  Zn62  1  0.50000000  0.50000000  0.50000000  1
  Zn  Zn63  1  0.16842631  0.18673137  0.43124432  1
  Zn  Zn64  1  0.16842631  0.81326862  0.56875568  1
  Zn  Zn65  1  0.00000000  0.29096789  0.25000000  1
  Zn  Zn66  1  0.00000000  0.17552327  0.86012119  1
  Zn  Zn67  1  0.00000000  0.17552327  0.63987881  1
