# generated using pymatgen
data_RbCr5S8
_symmetry_space_group_name_H-M   'P 1'
_cell_length_a   18.01030800
_cell_length_b   3.49969322
_cell_length_c   8.76483389
_cell_angle_alpha   90.00000000
_cell_angle_beta   105.18358959
_cell_angle_gamma   90.00000000
_symmetry_Int_Tables_number   1
_chemical_formula_structural   RbCr5S8
_chemical_formula_sum   'Rb2 Cr10 S16'
_cell_volume   533.16707078
_cell_formula_units_Z   2
loop_
 _symmetry_equiv_pos_site_id
 _symmetry_equiv_pos_as_xyz
  1  'x, y, z'
loop_
 _atom_site_type_symbol
 _atom_site_label
 _atom_site_symmetry_multiplicity
 _atom_site_fract_x
 _atom_site_fract_y
 _atom_site_fract_z
 _atom_site_occupancy
  Rb  Rb0  1  0.50000000  0.00000000  0.00000000  1
  Rb  Rb1  1  0.00000000  0.50000000  0.00000000  1
  Cr  Cr2  1  0.20456904  0.50000000  0.83515442  1
  Cr  Cr3  1  0.29543096  0.00000000  0.16484558  1
  Cr  Cr4  1  0.15877260  0.50000000  0.47442303  1
  Cr  Cr5  1  0.34122740  0.00000000  0.52557697  1
  Cr  Cr6  1  0.00000000  0.00000000  0.50000000  1
  Cr  Cr7  1  0.70456904  0.00000000  0.83515442  1
  Cr  Cr8  1  0.79543096  0.50000000  0.16484558  1
  Cr  Cr9  1  0.65877260  0.00000000  0.47442303  1
  Cr  Cr10  1  0.84122740  0.50000000  0.52557697  1
  Cr  Cr11  1  0.50000000  0.50000000  0.50000000  1
  S  S12  1  0.26203181  0.50000000  0.34382085  1
  S  S13  1  0.23796819  0.00000000  0.65617915  1
  S  S14  1  0.32835050  0.50000000  0.01347846  1
  S  S15  1  0.17164950  0.00000000  0.98652154  1
  S  S16  1  0.41424248  0.50000000  0.66992034  1
  S  S17  1  0.08575752  0.00000000  0.33007966  1
  S  S18  1  0.07689240  0.50000000  0.64805210  1
  S  S19  1  0.42310760  0.00000000  0.35194790  1
  S  S20  1  0.76203181  0.00000000  0.34382085  1
  S  S21  1  0.73796819  0.50000000  0.65617915  1
  S  S22  1  0.82835050  0.00000000  0.01347846  1
  S  S23  1  0.67164950  0.50000000  0.98652154  1
  S  S24  1  0.91424248  0.00000000  0.66992034  1
  S  S25  1  0.58575752  0.50000000  0.33007966  1
  S  S26  1  0.57689240  0.00000000  0.64805210  1
  S  S27  1  0.92310760  0.50000000  0.35194790  1
