# generated using pymatgen
data_TaSe2
_symmetry_space_group_name_H-M   'P 1'
_cell_length_a   3.47180812
_cell_length_b   3.47180812
_cell_length_c   20.21780361
_cell_angle_alpha   90.00000000
_cell_angle_beta   90.00000000
_cell_angle_gamma   120.00000000
_symmetry_Int_Tables_number   1
_chemical_formula_structural   TaSe2
_chemical_formula_sum   'Ta3 Se6'
_cell_volume   211.04547049
_cell_formula_units_Z   3
loop_
 _symmetry_equiv_pos_site_id
 _symmetry_equiv_pos_as_xyz
  1  'x, y, z'
loop_
 _atom_site_type_symbol
 _atom_site_label
 _atom_site_symmetry_multiplicity
 _atom_site_fract_x
 _atom_site_fract_y
 _atom_site_fract_z
 _atom_site_occupancy
  Ta  Ta0  1  0.00000000  0.00000000  0.00006207  1
  Ta  Ta1  1  0.66666667  0.33333333  0.33339540  1
  Ta  Ta2  1  0.33333333  0.66666667  0.66672874  1
  Se  Se3  1  0.00000000  0.00000000  0.25110899  1
  Se  Se4  1  0.33333333  0.66666667  0.08249561  1
  Se  Se5  1  0.66666667  0.33333333  0.58444232  1
  Se  Se6  1  0.00000000  0.00000000  0.41582894  1
  Se  Se7  1  0.33333333  0.66666667  0.91777566  1
  Se  Se8  1  0.66666667  0.33333333  0.74916227  1
