# generated using pymatgen
data_K3SiTe3
_symmetry_space_group_name_H-M   'P 1'
_cell_length_a   9.70625761
_cell_length_b   13.74301300
_cell_length_c   8.90754350
_cell_angle_alpha   90.00000000
_cell_angle_beta   117.19860758
_cell_angle_gamma   90.00000000
_symmetry_Int_Tables_number   1
_chemical_formula_structural   K3SiTe3
_chemical_formula_sum   'K12 Si4 Te12'
_cell_volume   1056.82302510
_cell_formula_units_Z   4
loop_
 _symmetry_equiv_pos_site_id
 _symmetry_equiv_pos_as_xyz
  1  'x, y, z'
loop_
 _atom_site_type_symbol
 _atom_site_label
 _atom_site_symmetry_multiplicity
 _atom_site_fract_x
 _atom_site_fract_y
 _atom_site_fract_z
 _atom_site_occupancy
  K  K0  1  0.20618246  0.00000000  0.67495713  1
  K  K1  1  0.75000000  0.25000000  0.00000000  1
  K  K2  1  0.50000000  0.15862812  0.50000000  1
  K  K3  1  0.50000000  0.84137188  0.50000000  1
  K  K4  1  0.75000000  0.75000000  0.00000000  1
  K  K5  1  0.79381754  0.00000000  0.32504287  1
  K  K6  1  0.70618246  0.50000000  0.67495713  1
  K  K7  1  0.25000000  0.75000000  0.00000000  1
  K  K8  1  0.00000000  0.65862812  0.50000000  1
  K  K9  1  0.00000000  0.34137188  0.50000000  1
  K  K10  1  0.25000000  0.25000000  0.00000000  1
  K  K11  1  0.29381754  0.50000000  0.32504287  1
  Si  Si12  1  0.10745232  0.00000000  0.13868844  1
  Si  Si13  1  0.89254768  0.00000000  0.86131156  1
  Si  Si14  1  0.60745232  0.50000000  0.13868844  1
  Si  Si15  1  0.39254768  0.50000000  0.86131156  1
  Te  Te16  1  0.63903663  0.00000000  0.87888753  1
  Te  Te17  1  0.36096337  0.00000000  0.12111247  1
  Te  Te18  1  0.40204703  0.34984613  0.70362507  1
  Te  Te19  1  0.59795297  0.34984613  0.29637493  1
  Te  Te20  1  0.59795297  0.65015387  0.29637493  1
  Te  Te21  1  0.40204703  0.65015387  0.70362507  1
  Te  Te22  1  0.13903663  0.50000000  0.87888753  1
  Te  Te23  1  0.86096337  0.50000000  0.12111247  1
  Te  Te24  1  0.90204702  0.84984613  0.70362507  1
  Te  Te25  1  0.09795297  0.84984613  0.29637493  1
  Te  Te26  1  0.09795297  0.15015387  0.29637493  1
  Te  Te27  1  0.90204702  0.15015387  0.70362507  1
