# generated using pymatgen
data_K2AgSb
_symmetry_space_group_name_H-M   'P 1'
_cell_length_a   8.32164894
_cell_length_b   10.50653971
_cell_length_c   6.28888665
_cell_angle_alpha   90.00000000
_cell_angle_beta   90.00000000
_cell_angle_gamma   90.00000000
_symmetry_Int_Tables_number   1
_chemical_formula_structural   K2AgSb
_chemical_formula_sum   'K8 Ag4 Sb4'
_cell_volume   549.84827114
_cell_formula_units_Z   4
loop_
 _symmetry_equiv_pos_site_id
 _symmetry_equiv_pos_as_xyz
  1  'x, y, z'
loop_
 _atom_site_type_symbol
 _atom_site_label
 _atom_site_symmetry_multiplicity
 _atom_site_fract_x
 _atom_site_fract_y
 _atom_site_fract_z
 _atom_site_occupancy
  K  K0  1  0.35039881  0.32877329  0.25000000  1
  K  K1  1  0.64960119  0.67122671  0.75000000  1
  K  K2  1  0.35039881  0.67122671  0.25000000  1
  K  K3  1  0.64960119  0.32877329  0.75000000  1
  K  K4  1  0.85039881  0.82877329  0.25000000  1
  K  K5  1  0.14960119  0.17122671  0.75000000  1
  K  K6  1  0.85039881  0.17122671  0.25000000  1
  K  K7  1  0.14960119  0.82877329  0.75000000  1
  Ag  Ag8  1  0.50000000  0.00000000  0.00000000  1
  Ag  Ag9  1  0.50000000  0.00000000  0.50000000  1
  Ag  Ag10  1  0.00000000  0.50000000  0.00000000  1
  Ag  Ag11  1  0.00000000  0.50000000  0.50000000  1
  Sb  Sb12  1  0.23628908  0.00000000  0.25000000  1
  Sb  Sb13  1  0.76371092  0.00000000  0.75000000  1
  Sb  Sb14  1  0.73628908  0.50000000  0.25000000  1
  Sb  Sb15  1  0.26371092  0.50000000  0.75000000  1
