# generated using pymatgen
data_CrP4
_symmetry_space_group_name_H-M   'P 1'
_cell_length_a   5.17427939
_cell_length_b   10.69591670
_cell_length_c   5.72485794
_cell_angle_alpha   90.00000000
_cell_angle_beta   110.61853467
_cell_angle_gamma   90.00000000
_symmetry_Int_Tables_number   1
_chemical_formula_structural   CrP4
_chemical_formula_sum   'Cr4 P16'
_cell_volume   296.53997115
_cell_formula_units_Z   4
loop_
 _symmetry_equiv_pos_site_id
 _symmetry_equiv_pos_as_xyz
  1  'x, y, z'
loop_
 _atom_site_type_symbol
 _atom_site_label
 _atom_site_symmetry_multiplicity
 _atom_site_fract_x
 _atom_site_fract_y
 _atom_site_fract_z
 _atom_site_occupancy
  Cr  Cr0  1  0.00000000  0.06103445  0.75000000  1
  Cr  Cr1  1  0.50000000  0.43896555  0.25000000  1
  Cr  Cr2  1  0.50000000  0.56103445  0.75000000  1
  Cr  Cr3  1  0.00000000  0.93896555  0.25000000  1
  P  P4  1  0.72628385  0.21988754  0.80969534  1
  P  P5  1  0.27371615  0.21988754  0.69030466  1
  P  P6  1  0.22735692  0.41141873  0.82257772  1
  P  P7  1  0.77264308  0.41141873  0.67742228  1
  P  P8  1  0.27264308  0.08858127  0.17742228  1
  P  P9  1  0.72735692  0.08858127  0.32257772  1
  P  P10  1  0.22628385  0.28011246  0.30969534  1
  P  P11  1  0.77371615  0.28011246  0.19030466  1
  P  P12  1  0.22628385  0.71988754  0.80969534  1
  P  P13  1  0.77371615  0.71988754  0.69030466  1
  P  P14  1  0.72735692  0.91141873  0.82257772  1
  P  P15  1  0.27264308  0.91141873  0.67742228  1
  P  P16  1  0.77264308  0.58858127  0.17742228  1
  P  P17  1  0.22735692  0.58858127  0.32257772  1
  P  P18  1  0.72628385  0.78011246  0.30969534  1
  P  P19  1  0.27371615  0.78011246  0.19030466  1
