# generated using pymatgen
data_Co2(SnTe)3
_symmetry_space_group_name_H-M   'P 1'
_cell_length_a   12.92240629
_cell_length_b   12.92240629
_cell_length_c   15.79898364
_cell_angle_alpha   90.00000000
_cell_angle_beta   90.00000000
_cell_angle_gamma   120.00000000
_symmetry_Int_Tables_number   1
_chemical_formula_structural   Co2(SnTe)3
_chemical_formula_sum   'Co24 Sn36 Te36'
_cell_volume   2284.79144333
_cell_formula_units_Z   12
loop_
 _symmetry_equiv_pos_site_id
 _symmetry_equiv_pos_as_xyz
  1  'x, y, z'
loop_
 _atom_site_type_symbol
 _atom_site_label
 _atom_site_symmetry_multiplicity
 _atom_site_fract_x
 _atom_site_fract_y
 _atom_site_fract_z
 _atom_site_occupancy
  Co  Co0  1  0.83200264  0.16417077  0.41248173  1
  Co  Co1  1  0.83582923  0.66783188  0.41248173  1
  Co  Co2  1  0.33216812  0.16799736  0.41248173  1
  Co  Co3  1  0.16799736  0.83582923  0.58751827  1
  Co  Co4  1  0.16417077  0.33216812  0.58751827  1
  Co  Co5  1  0.66783188  0.83200264  0.58751827  1
  Co  Co6  1  0.00000000  0.00000000  0.74816291  1
  Co  Co7  1  0.00000000  0.00000000  0.25183709  1
  Co  Co8  1  0.49866931  0.49750410  0.74581506  1
  Co  Co9  1  0.50249590  0.00116521  0.74581506  1
  Co  Co10  1  0.99883479  0.50133069  0.74581506  1
  Co  Co11  1  0.83466402  0.16916257  0.92085161  1
  Co  Co12  1  0.83083743  0.66550146  0.92085161  1
  Co  Co13  1  0.33449854  0.16533598  0.92085161  1
  Co  Co14  1  0.66666667  0.33333333  0.08149624  1
  Co  Co15  1  0.66666667  0.33333333  0.58517042  1
  Co  Co16  1  0.16533598  0.83083743  0.07914839  1
  Co  Co17  1  0.16916257  0.33449854  0.07914839  1
  Co  Co18  1  0.66550146  0.83466402  0.07914839  1
  Co  Co19  1  0.50133069  0.50249590  0.25418494  1
  Co  Co20  1  0.49750410  0.99883479  0.25418494  1
  Co  Co21  1  0.00116521  0.49866931  0.25418494  1
  Co  Co22  1  0.33333333  0.66666667  0.41482958  1
  Co  Co23  1  0.33333333  0.66666667  0.91850376  1
  Sn  Sn24  1  0.17434576  0.67133847  0.50615347  1
  Sn  Sn25  1  0.32866153  0.50300729  0.50615347  1
  Sn  Sn26  1  0.49699271  0.82565424  0.50615347  1
  Sn  Sn27  1  0.82565424  0.32866153  0.49384653  1
  Sn  Sn28  1  0.67133847  0.49699271  0.49384653  1
  Sn  Sn29  1  0.50300729  0.17434576  0.49384653  1
  Sn  Sn30  1  0.73176052  0.78261848  0.44838024  1
  Sn  Sn31  1  0.21738152  0.94914205  0.44838024  1
  Sn  Sn32  1  0.05085795  0.26823948  0.44838024  1
  Sn  Sn33  1  0.26823948  0.21738152  0.55161976  1
  Sn  Sn34  1  0.78261848  0.05085795  0.55161976  1
  Sn  Sn35  1  0.94914205  0.73176052  0.55161976  1
  Sn  Sn36  1  0.84101243  0.00467180  0.83948680  1
  Sn  Sn37  1  0.99532820  0.83634062  0.83948680  1
  Sn  Sn38  1  0.16365938  0.15898757  0.83948680  1
  Sn  Sn39  1  0.49232091  0.66199486  0.82717986  1
  Sn  Sn40  1  0.33800514  0.83032604  0.82717986  1
  Sn  Sn41  1  0.16967396  0.50767909  0.82717986  1
  Sn  Sn42  1  0.39842719  0.11595181  0.78171357  1
  Sn  Sn43  1  0.88404819  0.28247538  0.78171357  1
  Sn  Sn44  1  0.71752462  0.60157281  0.78171357  1
  Sn  Sn45  1  0.93490614  0.55071486  0.88495310  1
  Sn  Sn46  1  0.44928514  0.38419129  0.88495310  1
  Sn  Sn47  1  0.61580871  0.06509386  0.88495310  1
  Sn  Sn48  1  0.50767909  0.33800514  0.17282014  1
  Sn  Sn49  1  0.66199486  0.16967396  0.17282014  1
  Sn  Sn50  1  0.83032604  0.49232091  0.17282014  1
  Sn  Sn51  1  0.15898757  0.99532820  0.16051320  1
  Sn  Sn52  1  0.00467180  0.16365938  0.16051320  1
  Sn  Sn53  1  0.83634062  0.84101243  0.16051320  1
  Sn  Sn54  1  0.06509386  0.44928514  0.11504690  1
  Sn  Sn55  1  0.55071486  0.61580871  0.11504690  1
  Sn  Sn56  1  0.38419129  0.93490614  0.11504690  1
  Sn  Sn57  1  0.60157281  0.88404819  0.21828643  1
  Sn  Sn58  1  0.11595181  0.71752462  0.21828643  1
  Sn  Sn59  1  0.28247538  0.39842719  0.21828643  1
  Te  Te60  1  0.82607643  0.98838679  0.33349026  1
  Te  Te61  1  0.01161321  0.83768965  0.33349026  1
  Te  Te62  1  0.16231035  0.17392357  0.33349026  1
  Te  Te63  1  0.17392357  0.01161321  0.66650974  1
  Te  Te64  1  0.98838679  0.16231035  0.66650974  1
  Te  Te65  1  0.83768965  0.82607643  0.66650974  1
  Te  Te66  1  0.05556288  0.44989899  0.60500898  1
  Te  Te67  1  0.55010101  0.60566389  0.60500898  1
  Te  Te68  1  0.39433611  0.94443712  0.60500898  1
  Te  Te69  1  0.94443712  0.55010101  0.39499102  1
  Te  Te70  1  0.44989899  0.39433611  0.39499102  1
  Te  Te71  1  0.60566389  0.05556288  0.39499102  1
  Te  Te72  1  0.49274310  0.32172012  0.66682359  1
  Te  Te73  1  0.67827988  0.17102298  0.66682359  1
  Te  Te74  1  0.82897702  0.50725690  0.66682359  1
  Te  Te75  1  0.84059023  0.34494655  0.99984308  1
  Te  Te76  1  0.65505345  0.49564369  0.99984308  1
  Te  Te77  1  0.50435631  0.15940977  0.99984308  1
  Te  Te78  1  0.72222955  0.78323232  0.93834231  1
  Te  Te79  1  0.21676768  0.93899722  0.93834231  1
  Te  Te80  1  0.06100278  0.27777045  0.93834231  1
  Te  Te81  1  0.61110379  0.88343434  0.72832435  1
  Te  Te82  1  0.11656566  0.72766944  0.72832435  1
  Te  Te83  1  0.27233056  0.38889621  0.72832435  1
  Te  Te84  1  0.15940977  0.65505345  0.00015692  1
  Te  Te85  1  0.34494655  0.50435631  0.00015692  1
  Te  Te86  1  0.49564369  0.84059023  0.00015692  1
  Te  Te87  1  0.50725690  0.67827988  0.33317641  1
  Te  Te88  1  0.32172012  0.82897702  0.33317641  1
  Te  Te89  1  0.17102298  0.49274310  0.33317641  1
  Te  Te90  1  0.38889621  0.11656566  0.27167565  1
  Te  Te91  1  0.88343434  0.27233056  0.27167565  1
  Te  Te92  1  0.72766944  0.61110379  0.27167565  1
  Te  Te93  1  0.27777045  0.21676768  0.06165769  1
  Te  Te94  1  0.78323232  0.06100278  0.06165769  1
  Te  Te95  1  0.93899722  0.72222955  0.06165769  1
