# generated using pymatgen
data_AlInSe3
_symmetry_space_group_name_H-M   'P 1'
_cell_length_a   7.06971362
_cell_length_b   7.06971362
_cell_length_c   18.84396187
_cell_angle_alpha   90.00000000
_cell_angle_beta   90.00000000
_cell_angle_gamma   120.00000000
_symmetry_Int_Tables_number   1
_chemical_formula_structural   AlInSe3
_chemical_formula_sum   'Al6 In6 Se18'
_cell_volume   815.65497913
_cell_formula_units_Z   6
loop_
 _symmetry_equiv_pos_site_id
 _symmetry_equiv_pos_as_xyz
  1  'x, y, z'
loop_
 _atom_site_type_symbol
 _atom_site_label
 _atom_site_symmetry_multiplicity
 _atom_site_fract_x
 _atom_site_fract_y
 _atom_site_fract_z
 _atom_site_occupancy
  Al  Al0  1  0.01686244  0.68770772  0.02552096  1
  Al  Al1  1  0.98313756  0.31229228  0.52552096  1
  Al  Al2  1  0.31229228  0.32915472  0.35885430  1
  Al  Al3  1  0.67084528  0.98313756  0.69218763  1
  Al  Al4  1  0.32915472  0.01686244  0.19218763  1
  Al  Al5  1  0.68770772  0.67084528  0.85885430  1
  In  In6  1  0.33063082  0.33690745  0.99612329  1
  In  In7  1  0.66936918  0.66309255  0.49612329  1
  In  In8  1  0.66309255  0.99372337  0.32945663  1
  In  In9  1  0.00627663  0.66936918  0.66278996  1
  In  In10  1  0.99372337  0.33063082  0.16278996  1
  In  In11  1  0.33690745  0.00627663  0.82945663  1
  Se  Se12  1  0.04168237  0.67211974  0.51147852  1
  Se  Se13  1  0.95831763  0.32788026  0.01147852  1
  Se  Se14  1  0.32788026  0.36956263  0.84481186  1
  Se  Se15  1  0.63043737  0.95831763  0.17814519  1
  Se  Se16  1  0.36956263  0.04168237  0.67814519  1
  Se  Se17  1  0.67211974  0.63043737  0.34481186  1
  Se  Se18  1  0.99014997  0.70690186  0.15336161  1
  Se  Se19  1  0.00985003  0.29309814  0.65336161  1
  Se  Se20  1  0.29309814  0.28324811  0.48669495  1
  Se  Se21  1  0.71675189  0.00985003  0.82002828  1
  Se  Se22  1  0.28324811  0.99014997  0.32002828  1
  Se  Se23  1  0.70690186  0.71675189  0.98669495  1
  Se  Se24  1  0.37113065  0.34761742  0.14614182  1
  Se  Se25  1  0.62886935  0.65238258  0.64614182  1
  Se  Se26  1  0.65238258  0.02351323  0.47947516  1
  Se  Se27  1  0.97648677  0.62886935  0.81280849  1
  Se  Se28  1  0.02351323  0.37113065  0.31280849  1
  Se  Se29  1  0.34761742  0.97648677  0.97947516  1
