# generated using pymatgen
data_Ta2PdSe6
_symmetry_space_group_name_H-M   'P 1'
_cell_length_a   13.13793526
_cell_length_b   3.39966808
_cell_length_c   10.75138238
_cell_angle_alpha   90.00000000
_cell_angle_beta   118.28313176
_cell_angle_gamma   90.00000000
_symmetry_Int_Tables_number   1
_chemical_formula_structural   Ta2PdSe6
_chemical_formula_sum   'Ta4 Pd2 Se12'
_cell_volume   422.87786580
_cell_formula_units_Z   2
loop_
 _symmetry_equiv_pos_site_id
 _symmetry_equiv_pos_as_xyz
  1  'x, y, z'
loop_
 _atom_site_type_symbol
 _atom_site_label
 _atom_site_symmetry_multiplicity
 _atom_site_fract_x
 _atom_site_fract_y
 _atom_site_fract_z
 _atom_site_occupancy
  Ta  Ta0  1  0.31917768  0.00000000  0.70812646  1
  Ta  Ta1  1  0.68082232  0.00000000  0.29187354  1
  Ta  Ta2  1  0.81917768  0.50000000  0.70812646  1
  Ta  Ta3  1  0.18082232  0.50000000  0.29187354  1
  Pd  Pd4  1  0.00000000  0.00000000  0.00000000  1
  Pd  Pd5  1  0.50000000  0.50000000  0.00000000  1
  Se  Se6  1  0.28714204  0.50000000  0.87049857  1
  Se  Se7  1  0.71285796  0.50000000  0.12950143  1
  Se  Se8  1  0.83709381  0.50000000  0.46347544  1
  Se  Se9  1  0.98706339  0.00000000  0.76369722  1
  Se  Se10  1  0.01293661  0.00000000  0.23630278  1
  Se  Se11  1  0.16290619  0.50000000  0.53652456  1
  Se  Se12  1  0.78714204  0.00000000  0.87049857  1
  Se  Se13  1  0.21285796  0.00000000  0.12950143  1
  Se  Se14  1  0.33709381  0.00000000  0.46347544  1
  Se  Se15  1  0.48706339  0.50000000  0.76369722  1
  Se  Se16  1  0.51293662  0.50000000  0.23630278  1
  Se  Se17  1  0.66290619  0.00000000  0.53652456  1
