# generated using pymatgen
data_Fe4S5
_symmetry_space_group_name_H-M   'P 1'
_cell_length_a   7.89126908
_cell_length_b   7.89945416
_cell_length_c   10.06905432
_cell_angle_alpha   91.19086031
_cell_angle_beta   90.68032886
_cell_angle_gamma   90.00075776
_symmetry_Int_Tables_number   1
_chemical_formula_structural   Fe4S5
_chemical_formula_sum   'Fe8 S10'
_cell_volume   627.49197430
_cell_formula_units_Z   2
loop_
 _symmetry_equiv_pos_site_id
 _symmetry_equiv_pos_as_xyz
  1  'x, y, z'
loop_
 _atom_site_type_symbol
 _atom_site_label
 _atom_site_symmetry_multiplicity
 _atom_site_fract_x
 _atom_site_fract_y
 _atom_site_fract_z
 _atom_site_occupancy
  Fe  Fe0  1  0.90335300  0.29274200  0.99619100  1
  Fe  Fe1  1  0.79533400  0.59543400  0.99488500  1
  Fe  Fe2  1  0.70598700  0.90047800  0.00440700  1
  Fe  Fe3  1  0.59820500  0.20311600  0.00580300  1
  Fe  Fe4  1  0.09698400  0.70699700  0.99631700  1
  Fe  Fe5  1  0.20526200  0.40401400  0.99489300  1
  Fe  Fe6  1  0.29394800  0.09995000  0.00437400  1
  Fe  Fe7  1  0.40201300  0.79734200  0.00558400  1
  S  S8  1  0.00232300  0.50293200  0.11850600  1
  S  S9  1  0.79888900  0.10811000  0.12536100  1
  S  S10  1  0.70205900  0.38621300  0.87617800  1
  S  S11  1  0.60883200  0.70421700  0.12295400  1
  S  S12  1  0.49802500  0.99694000  0.88177100  1
  S  S13  1  0.10653300  0.20301600  0.87356900  1
  S  S14  1  0.20495800  0.89885900  0.12511500  1
  S  S15  1  0.29458200  0.60712500  0.87618000  1
  S  S16  1  0.39455200  0.30143800  0.12388100  1
  S  S17  1  0.89016300  0.79107700  0.87403100  1
