# generated using pymatgen
data_MnPSe3
_symmetry_space_group_name_H-M   'P 1'
_cell_length_a   6.39956087
_cell_length_b   6.39956087
_cell_length_c   20.71649273
_cell_angle_alpha   90.00000000
_cell_angle_beta   90.00000000
_cell_angle_gamma   120.00000000
_symmetry_Int_Tables_number   1
_chemical_formula_structural   MnPSe3
_chemical_formula_sum   'Mn6 P6 Se18'
_cell_volume   734.76288830
_cell_formula_units_Z   6
loop_
 _symmetry_equiv_pos_site_id
 _symmetry_equiv_pos_as_xyz
  1  'x, y, z'
loop_
 _atom_site_type_symbol
 _atom_site_label
 _atom_site_symmetry_multiplicity
 _atom_site_fract_x
 _atom_site_fract_y
 _atom_site_fract_z
 _atom_site_occupancy
  Mn  Mn0  1  0.66666667  0.33333333  0.16571619  1
  Mn  Mn1  1  0.00000000  0.00000000  0.16761714  1
  Mn  Mn2  1  0.33333333  0.66666667  0.49904953  1
  Mn  Mn3  1  0.66666667  0.33333333  0.50095047  1
  Mn  Mn4  1  0.00000000  0.00000000  0.83238286  1
  Mn  Mn5  1  0.33333333  0.66666667  0.83428381  1
  P  P6  1  0.33333333  0.66666667  0.22024606  1
  P  P7  1  0.33333333  0.66666667  0.11308728  1
  P  P8  1  0.00000000  0.00000000  0.55357939  1
  P  P9  1  0.00000000  0.00000000  0.44642061  1
  P  P10  1  0.66666667  0.33333333  0.88691272  1
  P  P11  1  0.66666667  0.33333333  0.77975394  1
  Se  Se12  1  0.33064702  0.99556390  0.08449691  1
  Se  Se13  1  0.00443610  0.33508311  0.08449691  1
  Se  Se14  1  0.66491689  0.66935298  0.08449691  1
  Se  Se15  1  0.33601965  0.33776943  0.24883642  1
  Se  Se16  1  0.66223057  0.99825022  0.24883642  1
  Se  Se17  1  0.00174978  0.66398035  0.24883642  1
  Se  Se18  1  0.99731368  0.32889724  0.41783025  1
  Se  Se19  1  0.67110276  0.66841645  0.41783025  1
  Se  Se20  1  0.33158355  0.00268632  0.41783025  1
  Se  Se21  1  0.00268632  0.67110276  0.58216975  1
  Se  Se22  1  0.32889724  0.33158355  0.58216975  1
  Se  Se23  1  0.66841645  0.99731368  0.58216975  1
  Se  Se24  1  0.66398035  0.66223057  0.75116358  1
  Se  Se25  1  0.33776943  0.00174978  0.75116358  1
  Se  Se26  1  0.99825022  0.33601965  0.75116358  1
  Se  Se27  1  0.66935298  0.00443610  0.91550309  1
  Se  Se28  1  0.99556390  0.66491689  0.91550309  1
  Se  Se29  1  0.33508311  0.33064702  0.91550309  1
