# generated using pymatgen
data_CsCr5Te8
_symmetry_space_group_name_H-M   'P 1'
_cell_length_a   20.67054142
_cell_length_b   4.02551690
_cell_length_c   9.81450512
_cell_angle_alpha   90.00000000
_cell_angle_beta   104.46572907
_cell_angle_gamma   90.00000000
_symmetry_Int_Tables_number   1
_chemical_formula_structural   CsCr5Te8
_chemical_formula_sum   'Cs2 Cr10 Te16'
_cell_volume   790.77075872
_cell_formula_units_Z   2
loop_
 _symmetry_equiv_pos_site_id
 _symmetry_equiv_pos_as_xyz
  1  'x, y, z'
loop_
 _atom_site_type_symbol
 _atom_site_label
 _atom_site_symmetry_multiplicity
 _atom_site_fract_x
 _atom_site_fract_y
 _atom_site_fract_z
 _atom_site_occupancy
  Cs  Cs0  1  0.00000000  0.50000000  0.50000000  1
  Cs  Cs1  1  0.50000000  0.00000000  0.50000000  1
  Cr  Cr2  1  0.16010994  0.50000000  0.98501435  1
  Cr  Cr3  1  0.33989006  0.00000000  0.01498565  1
  Cr  Cr4  1  0.20417593  0.50000000  0.33112373  1
  Cr  Cr5  1  0.29582407  0.00000000  0.66887627  1
  Cr  Cr6  1  0.00000000  0.00000000  0.00000000  1
  Cr  Cr7  1  0.66010994  0.00000000  0.98501435  1
  Cr  Cr8  1  0.83989006  0.50000000  0.01498565  1
  Cr  Cr9  1  0.70417593  0.00000000  0.33112373  1
  Cr  Cr10  1  0.79582407  0.50000000  0.66887627  1
  Cr  Cr11  1  0.50000000  0.50000000  0.00000000  1
  Te  Te12  1  0.26081408  0.50000000  0.84236336  1
  Te  Te13  1  0.23918592  0.00000000  0.15763664  1
  Te  Te14  1  0.42585347  0.00000000  0.84516147  1
  Te  Te15  1  0.07414653  0.50000000  0.15483853  1
  Te  Te16  1  0.41109411  0.50000000  0.16665503  1
  Te  Te17  1  0.08890589  0.00000000  0.83334497  1
  Te  Te18  1  0.32794041  0.50000000  0.50918913  1
  Te  Te19  1  0.17205959  0.00000000  0.49081087  1
  Te  Te20  1  0.76081408  0.00000000  0.84236336  1
  Te  Te21  1  0.73918592  0.50000000  0.15763664  1
  Te  Te22  1  0.92585347  0.50000000  0.84516147  1
  Te  Te23  1  0.57414653  0.00000000  0.15483853  1
  Te  Te24  1  0.91109411  0.00000000  0.16665503  1
  Te  Te25  1  0.58890589  0.50000000  0.83334497  1
  Te  Te26  1  0.82794041  0.00000000  0.50918913  1
  Te  Te27  1  0.67205959  0.50000000  0.49081087  1
