# generated using pymatgen
data_YCo
_symmetry_space_group_name_H-M   'P 1'
_cell_length_a   3.87523862
_cell_length_b   3.87523862
_cell_length_c   21.11097411
_cell_angle_alpha   90.00000000
_cell_angle_beta   90.00000000
_cell_angle_gamma   120.00000000
_symmetry_Int_Tables_number   1
_chemical_formula_structural   YCo
_chemical_formula_sum   'Y6 Co6'
_cell_volume   274.55907527
_cell_formula_units_Z   6
loop_
 _symmetry_equiv_pos_site_id
 _symmetry_equiv_pos_as_xyz
  1  'x, y, z'
loop_
 _atom_site_type_symbol
 _atom_site_label
 _atom_site_symmetry_multiplicity
 _atom_site_fract_x
 _atom_site_fract_y
 _atom_site_fract_z
 _atom_site_occupancy
  Y  Y0  1  0.00000000  0.00000000  0.40981925  1
  Y  Y1  1  0.33333333  0.66666667  0.25684742  1
  Y  Y2  1  0.66666667  0.33333333  0.74315258  1
  Y  Y3  1  0.00000000  0.00000000  0.59018075  1
  Y  Y4  1  0.33333333  0.66666667  0.07648591  1
  Y  Y5  1  0.66666667  0.33333333  0.92351409  1
  Co  Co6  1  0.33333333  0.66666667  0.49632815  1
  Co  Co7  1  0.00000000  0.00000000  0.17033851  1
  Co  Co8  1  0.00000000  0.00000000  0.82966149  1
  Co  Co9  1  0.66666667  0.33333333  0.50367185  1
  Co  Co10  1  0.66666667  0.33333333  0.16299482  1
  Co  Co11  1  0.33333333  0.66666667  0.83700518  1
