# generated using pymatgen
data_HfPd5
_symmetry_space_group_name_H-M   'P 1'
_cell_length_a   3.99430556
_cell_length_b   11.72429585
_cell_length_c   3.98859924
_cell_angle_alpha   90.00000000
_cell_angle_beta   90.00000000
_cell_angle_gamma   90.00000000
_symmetry_Int_Tables_number   1
_chemical_formula_structural   HfPd5
_chemical_formula_sum   'Hf2 Pd10'
_cell_volume   186.78777802
_cell_formula_units_Z   2
loop_
 _symmetry_equiv_pos_site_id
 _symmetry_equiv_pos_as_xyz
  1  'x, y, z'
loop_
 _atom_site_type_symbol
 _atom_site_label
 _atom_site_symmetry_multiplicity
 _atom_site_fract_x
 _atom_site_fract_y
 _atom_site_fract_z
 _atom_site_occupancy
  Hf  Hf0  1  0.00000000  0.00000000  0.00000000  1
  Hf  Hf1  1  0.50000000  0.50000000  0.00000000  1
  Pd  Pd2  1  0.50000000  0.16341818  0.00000000  1
  Pd  Pd3  1  0.00000000  0.33658182  0.00000000  1
  Pd  Pd4  1  0.50000000  0.00000000  0.50000000  1
  Pd  Pd5  1  0.00000000  0.16583443  0.50000000  1
  Pd  Pd6  1  0.50000000  0.33416557  0.50000000  1
  Pd  Pd7  1  0.00000000  0.66341818  0.00000000  1
  Pd  Pd8  1  0.50000000  0.83658182  0.00000000  1
  Pd  Pd9  1  0.00000000  0.50000000  0.50000000  1
  Pd  Pd10  1  0.50000000  0.66583443  0.50000000  1
  Pd  Pd11  1  0.00000000  0.83416557  0.50000000  1
