# generated using pymatgen
data_K2CuP
_symmetry_space_group_name_H-M   'P 1'
_cell_length_a   7.41151874
_cell_length_b   9.88342309
_cell_length_c   5.70443117
_cell_angle_alpha   90.00000000
_cell_angle_beta   90.00000000
_cell_angle_gamma   90.00000000
_symmetry_Int_Tables_number   1
_chemical_formula_structural   K2CuP
_chemical_formula_sum   'K8 Cu4 P4'
_cell_volume   417.85628827
_cell_formula_units_Z   4
loop_
 _symmetry_equiv_pos_site_id
 _symmetry_equiv_pos_as_xyz
  1  'x, y, z'
loop_
 _atom_site_type_symbol
 _atom_site_label
 _atom_site_symmetry_multiplicity
 _atom_site_fract_x
 _atom_site_fract_y
 _atom_site_fract_z
 _atom_site_occupancy
  K  K0  1  0.35609551  0.66841762  0.25000000  1
  K  K1  1  0.35609551  0.33158238  0.25000000  1
  K  K2  1  0.64390449  0.33158238  0.75000000  1
  K  K3  1  0.64390449  0.66841762  0.75000000  1
  K  K4  1  0.85609551  0.16841762  0.25000000  1
  K  K5  1  0.85609551  0.83158238  0.25000000  1
  K  K6  1  0.14390449  0.83158238  0.75000000  1
  K  K7  1  0.14390449  0.16841762  0.75000000  1
  Cu  Cu8  1  0.50000000  0.00000000  0.50000000  1
  Cu  Cu9  1  0.50000000  0.00000000  0.00000000  1
  Cu  Cu10  1  0.00000000  0.50000000  0.50000000  1
  Cu  Cu11  1  0.00000000  0.50000000  0.00000000  1
  P  P12  1  0.26893985  0.00000000  0.25000000  1
  P  P13  1  0.73106015  0.00000000  0.75000000  1
  P  P14  1  0.76893985  0.50000000  0.25000000  1
  P  P15  1  0.23106015  0.50000000  0.75000000  1
