# generated using pymatgen
data_Re3Pd
_symmetry_space_group_name_H-M   'P 1'
_cell_length_a   5.54033815
_cell_length_b   5.54033815
_cell_length_c   4.41596740
_cell_angle_alpha   90.00000000
_cell_angle_beta   90.00000000
_cell_angle_gamma   120.00000000
_symmetry_Int_Tables_number   1
_chemical_formula_structural   Re3Pd
_chemical_formula_sum   'Re6 Pd2'
_cell_volume   117.38944097
_cell_formula_units_Z   2
loop_
 _symmetry_equiv_pos_site_id
 _symmetry_equiv_pos_as_xyz
  1  'x, y, z'
loop_
 _atom_site_type_symbol
 _atom_site_label
 _atom_site_symmetry_multiplicity
 _atom_site_fract_x
 _atom_site_fract_y
 _atom_site_fract_z
 _atom_site_occupancy
  Re  Re0  1  0.84035731  0.15964269  0.75000000  1
  Re  Re1  1  0.31928537  0.15964269  0.75000000  1
  Re  Re2  1  0.84035731  0.68071463  0.75000000  1
  Re  Re3  1  0.15964269  0.84035731  0.25000000  1
  Re  Re4  1  0.68071463  0.84035731  0.25000000  1
  Re  Re5  1  0.15964269  0.31928537  0.25000000  1
  Pd  Pd6  1  0.66666667  0.33333333  0.25000000  1
  Pd  Pd7  1  0.33333333  0.66666667  0.75000000  1
