# generated using pymatgen
data_ScSbRh2
_symmetry_space_group_name_H-M   'P 1'
_cell_length_a   6.42376900
_cell_length_b   6.42376900
_cell_length_c   6.42376900
_cell_angle_alpha   90.00000000
_cell_angle_beta   90.00000000
_cell_angle_gamma   90.00000000
_symmetry_Int_Tables_number   1
_chemical_formula_structural   ScSbRh2
_chemical_formula_sum   'Sc4 Sb4 Rh8'
_cell_volume   265.07559548
_cell_formula_units_Z   4
loop_
 _symmetry_equiv_pos_site_id
 _symmetry_equiv_pos_as_xyz
  1  'x, y, z'
loop_
 _atom_site_type_symbol
 _atom_site_label
 _atom_site_symmetry_multiplicity
 _atom_site_fract_x
 _atom_site_fract_y
 _atom_site_fract_z
 _atom_site_occupancy
  Sc  Sc0  1  0.00000000  0.00000000  0.00000000  1
  Sc  Sc1  1  0.00000000  0.50000000  0.50000000  1
  Sc  Sc2  1  0.50000000  0.00000000  0.50000000  1
  Sc  Sc3  1  0.50000000  0.50000000  0.00000000  1
  Sb  Sb4  1  0.00000000  0.50000000  0.00000000  1
  Sb  Sb5  1  0.00000000  0.00000000  0.50000000  1
  Sb  Sb6  1  0.50000000  0.50000000  0.50000000  1
  Sb  Sb7  1  0.50000000  0.00000000  0.00000000  1
  Rh  Rh8  1  0.75000000  0.75000000  0.25000000  1
  Rh  Rh9  1  0.25000000  0.75000000  0.25000000  1
  Rh  Rh10  1  0.75000000  0.25000000  0.75000000  1
  Rh  Rh11  1  0.25000000  0.25000000  0.75000000  1
  Rh  Rh12  1  0.25000000  0.75000000  0.75000000  1
  Rh  Rh13  1  0.75000000  0.75000000  0.75000000  1
  Rh  Rh14  1  0.25000000  0.25000000  0.25000000  1
  Rh  Rh15  1  0.75000000  0.25000000  0.25000000  1
