# generated using pymatgen
data_AsPd2
_symmetry_space_group_name_H-M   'P 1'
_cell_length_a   3.40125164
_cell_length_b   16.87398462
_cell_length_c   6.56825071
_cell_angle_alpha   90.00000000
_cell_angle_beta   90.00000000
_cell_angle_gamma   90.00000000
_symmetry_Int_Tables_number   1
_chemical_formula_structural   AsPd2
_chemical_formula_sum   'As8 Pd16'
_cell_volume   376.96943088
_cell_formula_units_Z   8
loop_
 _symmetry_equiv_pos_site_id
 _symmetry_equiv_pos_as_xyz
  1  'x, y, z'
loop_
 _atom_site_type_symbol
 _atom_site_label
 _atom_site_symmetry_multiplicity
 _atom_site_fract_x
 _atom_site_fract_y
 _atom_site_fract_z
 _atom_site_occupancy
  As  As0  1  0.00000000  0.20053540  0.76870968  1
  As  As1  1  0.50000000  0.29946460  0.26870968  1
  As  As2  1  0.50000000  0.05859191  0.30176906  1
  As  As3  1  0.00000000  0.44140809  0.80176906  1
  As  As4  1  0.50000000  0.70053540  0.76870968  1
  As  As5  1  0.00000000  0.79946460  0.26870968  1
  As  As6  1  0.00000000  0.55859191  0.30176906  1
  As  As7  1  0.50000000  0.94140809  0.80176906  1
  Pd  Pd8  1  0.50000000  0.17751803  0.03724260  1
  Pd  Pd9  1  0.00000000  0.32248197  0.53724260  1
  Pd  Pd10  1  0.00000000  0.41659837  0.17434098  1
  Pd  Pd11  1  0.50000000  0.08340163  0.67434098  1
  Pd  Pd12  1  0.00000000  0.16663825  0.38753084  1
  Pd  Pd13  1  0.50000000  0.33336175  0.88753084  1
  Pd  Pd14  1  0.50000000  0.45930479  0.51610482  1
  Pd  Pd15  1  0.00000000  0.04069521  0.01610482  1
  Pd  Pd16  1  0.00000000  0.67751803  0.03724260  1
  Pd  Pd17  1  0.50000000  0.82248197  0.53724260  1
  Pd  Pd18  1  0.50000000  0.91659837  0.17434098  1
  Pd  Pd19  1  0.00000000  0.58340163  0.67434098  1
  Pd  Pd20  1  0.50000000  0.66663825  0.38753084  1
  Pd  Pd21  1  0.00000000  0.83336175  0.88753084  1
  Pd  Pd22  1  0.00000000  0.95930479  0.51610482  1
  Pd  Pd23  1  0.50000000  0.54069521  0.01610482  1
