# generated using pymatgen
data_K2Au3
_symmetry_space_group_name_H-M   'P 1'
_cell_length_a   4.92962216
_cell_length_b   5.51272103
_cell_length_c   9.94479348
_cell_angle_alpha   90.00000000
_cell_angle_beta   90.00000000
_cell_angle_gamma   90.00000000
_symmetry_Int_Tables_number   1
_chemical_formula_structural   K2Au3
_chemical_formula_sum   'K4 Au6'
_cell_volume   270.25604581
_cell_formula_units_Z   2
loop_
 _symmetry_equiv_pos_site_id
 _symmetry_equiv_pos_as_xyz
  1  'x, y, z'
loop_
 _atom_site_type_symbol
 _atom_site_label
 _atom_site_symmetry_multiplicity
 _atom_site_fract_x
 _atom_site_fract_y
 _atom_site_fract_z
 _atom_site_occupancy
  K  K0  1  0.00000000  0.50000000  0.19467842  1
  K  K1  1  0.50000000  0.00000000  0.30532158  1
  K  K2  1  0.50000000  0.00000000  0.69467842  1
  K  K3  1  0.00000000  0.50000000  0.80532158  1
  Au  Au4  1  0.00000000  0.00000000  0.00000000  1
  Au  Au5  1  0.00000000  0.75299900  0.50000000  1
  Au  Au6  1  0.50000000  0.74700100  0.00000000  1
  Au  Au7  1  0.50000000  0.50000000  0.50000000  1
  Au  Au8  1  0.50000000  0.25299900  0.00000000  1
  Au  Au9  1  0.00000000  0.24700100  0.50000000  1
