# generated using pymatgen
data_Sr2Sn
_symmetry_space_group_name_H-M   'P 1'
_cell_length_a   5.37720745
_cell_length_b   8.45901413
_cell_length_c   10.10101403
_cell_angle_alpha   90.00000000
_cell_angle_beta   90.00000000
_cell_angle_gamma   90.00000000
_symmetry_Int_Tables_number   1
_chemical_formula_structural   Sr2Sn
_chemical_formula_sum   'Sr8 Sn4'
_cell_volume   459.45344942
_cell_formula_units_Z   4
loop_
 _symmetry_equiv_pos_site_id
 _symmetry_equiv_pos_as_xyz
  1  'x, y, z'
loop_
 _atom_site_type_symbol
 _atom_site_label
 _atom_site_symmetry_multiplicity
 _atom_site_fract_x
 _atom_site_fract_y
 _atom_site_fract_z
 _atom_site_occupancy
  Sr  Sr0  1  0.25000000  0.47875652  0.32014867  1
  Sr  Sr1  1  0.75000000  0.52124348  0.67985133  1
  Sr  Sr2  1  0.25000000  0.97875652  0.17985133  1
  Sr  Sr3  1  0.75000000  0.02124348  0.82014867  1
  Sr  Sr4  1  0.75000000  0.15493364  0.42622672  1
  Sr  Sr5  1  0.25000000  0.84506636  0.57377328  1
  Sr  Sr6  1  0.75000000  0.65493364  0.07377328  1
  Sr  Sr7  1  0.25000000  0.34506636  0.92622672  1
  Sn  Sn8  1  0.25000000  0.74834270  0.89353070  1
  Sn  Sn9  1  0.75000000  0.25165730  0.10646930  1
  Sn  Sn10  1  0.25000000  0.24834270  0.60646930  1
  Sn  Sn11  1  0.75000000  0.75165730  0.39353070  1
