# generated using pymatgen
data_Ni9S8
_symmetry_space_group_name_H-M   'P 1'
_cell_length_a   9.20273708
_cell_length_b   11.07843058
_cell_length_c   9.31389900
_cell_angle_alpha   90.00000000
_cell_angle_beta   90.00000000
_cell_angle_gamma   90.00000000
_symmetry_Int_Tables_number   1
_chemical_formula_structural   Ni9S8
_chemical_formula_sum   'Ni36 S32'
_cell_volume   949.56954938
_cell_formula_units_Z   4
loop_
 _symmetry_equiv_pos_site_id
 _symmetry_equiv_pos_as_xyz
  1  'x, y, z'
loop_
 _atom_site_type_symbol
 _atom_site_label
 _atom_site_symmetry_multiplicity
 _atom_site_fract_x
 _atom_site_fract_y
 _atom_site_fract_z
 _atom_site_occupancy
  Ni  Ni0  1  0.12610568  0.58764573  0.37325735  1
  Ni  Ni1  1  0.87389432  0.41235427  0.37325735  1
  Ni  Ni2  1  0.12610568  0.41235427  0.62674265  1
  Ni  Ni3  1  0.87389432  0.58764573  0.62674265  1
  Ni  Ni4  1  0.00000000  0.50000000  0.00000000  1
  Ni  Ni5  1  0.00000000  0.00000000  0.21439781  1
  Ni  Ni6  1  0.00000000  0.00000000  0.78560219  1
  Ni  Ni7  1  0.72207787  0.50000000  0.00000000  1
  Ni  Ni8  1  0.27792213  0.50000000  0.00000000  1
  Ni  Ni9  1  0.00000000  0.00000000  0.50000000  1
  Ni  Ni10  1  0.87385533  0.18294638  0.12166694  1
  Ni  Ni11  1  0.12614467  0.81705362  0.12166694  1
  Ni  Ni12  1  0.87385533  0.81705362  0.87833306  1
  Ni  Ni13  1  0.12614467  0.18294638  0.87833306  1
  Ni  Ni14  1  0.25000000  0.25000000  0.26957678  1
  Ni  Ni15  1  0.75000000  0.25000000  0.73042322  1
  Ni  Ni16  1  0.00000000  0.23650909  0.50000000  1
  Ni  Ni17  1  0.00000000  0.76349091  0.50000000  1
  Ni  Ni18  1  0.62610568  0.08764573  0.37325735  1
  Ni  Ni19  1  0.37389432  0.91235427  0.37325735  1
  Ni  Ni20  1  0.62610568  0.91235427  0.62674265  1
  Ni  Ni21  1  0.37389432  0.08764573  0.62674265  1
  Ni  Ni22  1  0.50000000  0.00000000  0.00000000  1
  Ni  Ni23  1  0.50000000  0.50000000  0.21439781  1
  Ni  Ni24  1  0.50000000  0.50000000  0.78560219  1
  Ni  Ni25  1  0.22207787  0.00000000  0.00000000  1
  Ni  Ni26  1  0.77792213  0.00000000  0.00000000  1
  Ni  Ni27  1  0.50000000  0.50000000  0.50000000  1
  Ni  Ni28  1  0.37385533  0.68294638  0.12166694  1
  Ni  Ni29  1  0.62614467  0.31705362  0.12166694  1
  Ni  Ni30  1  0.37385533  0.31705362  0.87833306  1
  Ni  Ni31  1  0.62614467  0.68294638  0.87833306  1
  Ni  Ni32  1  0.75000000  0.75000000  0.26957678  1
  Ni  Ni33  1  0.25000000  0.75000000  0.73042322  1
  Ni  Ni34  1  0.50000000  0.73650909  0.50000000  1
  Ni  Ni35  1  0.50000000  0.26349091  0.50000000  1
  S  S36  1  0.88142637  0.84857470  0.11941839  1
  S  S37  1  0.11857363  0.15142530  0.11941839  1
  S  S38  1  0.88142637  0.15142530  0.88058161  1
  S  S39  1  0.11857363  0.84857470  0.88058161  1
  S  S40  1  0.36768567  0.61529859  0.36044966  1
  S  S41  1  0.63231433  0.38470141  0.36044966  1
  S  S42  1  0.36768567  0.38470141  0.63955034  1
  S  S43  1  0.63231433  0.61529859  0.63955034  1
  S  S44  1  0.13229713  0.61645070  0.13424123  1
  S  S45  1  0.86770287  0.38354930  0.13424123  1
  S  S46  1  0.13229713  0.38354930  0.86575877  1
  S  S47  1  0.86770287  0.61645070  0.86575877  1
  S  S48  1  0.11954371  0.37883814  0.38630861  1
  S  S49  1  0.88045629  0.62116186  0.38630861  1
  S  S50  1  0.11954371  0.62116186  0.61369139  1
  S  S51  1  0.88045629  0.37883814  0.61369139  1
  S  S52  1  0.38142637  0.34857470  0.11941839  1
  S  S53  1  0.61857363  0.65142530  0.11941839  1
  S  S54  1  0.38142637  0.65142530  0.88058161  1
  S  S55  1  0.61857363  0.34857470  0.88058161  1
  S  S56  1  0.86768567  0.11529859  0.36044966  1
  S  S57  1  0.13231433  0.88470141  0.36044966  1
  S  S58  1  0.86768567  0.88470141  0.63955034  1
  S  S59  1  0.13231433  0.11529859  0.63955034  1
  S  S60  1  0.63229713  0.11645070  0.13424123  1
  S  S61  1  0.36770287  0.88354930  0.13424123  1
  S  S62  1  0.63229713  0.88354930  0.86575877  1
  S  S63  1  0.36770287  0.11645070  0.86575877  1
  S  S64  1  0.61954371  0.87883814  0.38630861  1
  S  S65  1  0.38045629  0.12116186  0.38630861  1
  S  S66  1  0.61954371  0.12116186  0.61369139  1
  S  S67  1  0.38045629  0.87883814  0.61369139  1
