# generated using pymatgen
data_KFeSe2
_symmetry_space_group_name_H-M   'P 1'
_cell_length_a   7.33426633
_cell_length_b   11.48132771
_cell_length_c   5.54977449
_cell_angle_alpha   90.00000000
_cell_angle_beta   112.39045128
_cell_angle_gamma   90.00000000
_symmetry_Int_Tables_number   1
_chemical_formula_structural   KFeSe2
_chemical_formula_sum   'K4 Fe4 Se8'
_cell_volume   432.09823365
_cell_formula_units_Z   4
loop_
 _symmetry_equiv_pos_site_id
 _symmetry_equiv_pos_as_xyz
  1  'x, y, z'
loop_
 _atom_site_type_symbol
 _atom_site_label
 _atom_site_symmetry_multiplicity
 _atom_site_fract_x
 _atom_site_fract_y
 _atom_site_fract_z
 _atom_site_occupancy
  K  K0  1  0.00000000  0.36309222  0.25000000  1
  K  K1  1  0.00000000  0.63690778  0.75000000  1
  K  K2  1  0.50000000  0.86309222  0.25000000  1
  K  K3  1  0.50000000  0.13690778  0.75000000  1
  Fe  Fe4  1  0.00000000  0.99613076  0.25000000  1
  Fe  Fe5  1  0.00000000  0.00386924  0.75000000  1
  Fe  Fe6  1  0.50000000  0.49613076  0.25000000  1
  Fe  Fe7  1  0.50000000  0.50386924  0.75000000  1
  Se  Se8  1  0.30032501  0.38547791  0.89469475  1
  Se  Se9  1  0.69967499  0.38547791  0.60530525  1
  Se  Se10  1  0.69967499  0.61452209  0.10530525  1
  Se  Se11  1  0.30032501  0.61452209  0.39469475  1
  Se  Se12  1  0.80032501  0.88547792  0.89469475  1
  Se  Se13  1  0.19967499  0.88547792  0.60530525  1
  Se  Se14  1  0.19967499  0.11452209  0.10530525  1
  Se  Se15  1  0.80032501  0.11452209  0.39469475  1
