# generated using pymatgen
data_KAgCl3
_symmetry_space_group_name_H-M   'P 1'
_cell_length_a   7.18281627
_cell_length_b   7.18281627
_cell_length_c   17.18424630
_cell_angle_alpha   90.00000000
_cell_angle_beta   90.00000000
_cell_angle_gamma   120.00000000
_symmetry_Int_Tables_number   1
_chemical_formula_structural   KAgCl3
_chemical_formula_sum   'K6 Ag6 Cl18'
_cell_volume   767.80447037
_cell_formula_units_Z   6
loop_
 _symmetry_equiv_pos_site_id
 _symmetry_equiv_pos_as_xyz
  1  'x, y, z'
loop_
 _atom_site_type_symbol
 _atom_site_label
 _atom_site_symmetry_multiplicity
 _atom_site_fract_x
 _atom_site_fract_y
 _atom_site_fract_z
 _atom_site_occupancy
  K  K0  1  0.33333333  0.66666667  0.92496516  1
  K  K1  1  0.33333333  0.66666667  0.42496516  1
  K  K2  1  0.00000000  0.00000000  0.25829849  1
  K  K3  1  0.00000000  0.00000000  0.75829849  1
  K  K4  1  0.66666667  0.33333333  0.59163182  1
  K  K5  1  0.66666667  0.33333333  0.09163182  1
  Ag  Ag6  1  0.33333333  0.66666667  0.67161108  1
  Ag  Ag7  1  0.33333333  0.66666667  0.17161108  1
  Ag  Ag8  1  0.00000000  0.00000000  0.00494441  1
  Ag  Ag9  1  0.00000000  0.00000000  0.50494441  1
  Ag  Ag10  1  0.66666667  0.33333333  0.33827774  1
  Ag  Ag11  1  0.66666667  0.33333333  0.83827774  1
  Cl  Cl12  1  0.00055914  0.54344429  0.25508570  1
  Cl  Cl13  1  0.54288514  0.99944086  0.25508570  1
  Cl  Cl14  1  0.45655571  0.45711486  0.25508570  1
  Cl  Cl15  1  0.12322238  0.33277419  0.08841903  1
  Cl  Cl16  1  0.66722581  0.79044819  0.08841903  1
  Cl  Cl17  1  0.20955181  0.87677762  0.08841903  1
  Cl  Cl18  1  0.66722581  0.87677762  0.58841903  1
  Cl  Cl19  1  0.20955181  0.33277419  0.58841903  1
  Cl  Cl20  1  0.12322238  0.79044819  0.58841903  1
  Cl  Cl21  1  0.78988905  0.66610752  0.42175236  1
  Cl  Cl22  1  0.33389248  0.12378152  0.42175236  1
  Cl  Cl23  1  0.87621848  0.21011095  0.42175236  1
  Cl  Cl24  1  0.33389248  0.21011095  0.92175236  1
  Cl  Cl25  1  0.87621848  0.66610752  0.92175236  1
  Cl  Cl26  1  0.78988905  0.12378152  0.92175236  1
  Cl  Cl27  1  0.45655571  0.99944086  0.75508570  1
  Cl  Cl28  1  0.00055914  0.45711486  0.75508570  1
  Cl  Cl29  1  0.54288514  0.54344429  0.75508570  1
