# generated using pymatgen
data_Cs2ZrSe3
_symmetry_space_group_name_H-M   'P 1'
_cell_length_a   9.58625975
_cell_length_b   13.24701161
_cell_length_c   7.18261606
_cell_angle_alpha   90.00000000
_cell_angle_beta   90.00000000
_cell_angle_gamma   90.00000000
_symmetry_Int_Tables_number   1
_chemical_formula_structural   Cs2ZrSe3
_chemical_formula_sum   'Cs8 Zr4 Se12'
_cell_volume   912.11534418
_cell_formula_units_Z   4
loop_
 _symmetry_equiv_pos_site_id
 _symmetry_equiv_pos_as_xyz
  1  'x, y, z'
loop_
 _atom_site_type_symbol
 _atom_site_label
 _atom_site_symmetry_multiplicity
 _atom_site_fract_x
 _atom_site_fract_y
 _atom_site_fract_z
 _atom_site_occupancy
  Cs  Cs0  1  0.66281448  0.15524328  0.25000000  1
  Cs  Cs1  1  0.33718552  0.84475672  0.75000000  1
  Cs  Cs2  1  0.33718552  0.15524328  0.75000000  1
  Cs  Cs3  1  0.66281448  0.84475672  0.25000000  1
  Cs  Cs4  1  0.16281448  0.65524328  0.25000000  1
  Cs  Cs5  1  0.83718552  0.34475672  0.75000000  1
  Cs  Cs6  1  0.83718552  0.65524328  0.75000000  1
  Cs  Cs7  1  0.16281448  0.34475672  0.25000000  1
  Zr  Zr8  1  0.08224193  0.00000000  0.25000000  1
  Zr  Zr9  1  0.91775807  0.00000000  0.75000000  1
  Zr  Zr10  1  0.58224193  0.50000000  0.25000000  1
  Zr  Zr11  1  0.41775807  0.50000000  0.75000000  1
  Se  Se12  1  0.65840490  0.00000000  0.75000000  1
  Se  Se13  1  0.34159510  0.00000000  0.25000000  1
  Se  Se14  1  0.50000000  0.63596489  0.50000000  1
  Se  Se15  1  0.50000000  0.63596489  0.00000000  1
  Se  Se16  1  0.50000000  0.36403511  0.50000000  1
  Se  Se17  1  0.50000000  0.36403511  0.00000000  1
  Se  Se18  1  0.15840490  0.50000000  0.75000000  1
  Se  Se19  1  0.84159510  0.50000000  0.25000000  1
  Se  Se20  1  0.00000000  0.13596489  0.50000000  1
  Se  Se21  1  0.00000000  0.13596489  0.00000000  1
  Se  Se22  1  0.00000000  0.86403511  0.50000000  1
  Se  Se23  1  0.00000000  0.86403511  0.00000000  1
