# generated using pymatgen
data_YTe3
_symmetry_space_group_name_H-M   'P 1'
_cell_length_a   4.33723424
_cell_length_b   26.36295692
_cell_length_c   4.33836631
_cell_angle_alpha   90.00000000
_cell_angle_beta   90.00000000
_cell_angle_gamma   90.00000000
_symmetry_Int_Tables_number   1
_chemical_formula_structural   YTe3
_chemical_formula_sum   'Y4 Te12'
_cell_volume   496.05886638
_cell_formula_units_Z   4
loop_
 _symmetry_equiv_pos_site_id
 _symmetry_equiv_pos_as_xyz
  1  'x, y, z'
loop_
 _atom_site_type_symbol
 _atom_site_label
 _atom_site_symmetry_multiplicity
 _atom_site_fract_x
 _atom_site_fract_y
 _atom_site_fract_z
 _atom_site_occupancy
  Y  Y0  1  0.00000000  0.82838044  0.25000000  1
  Y  Y1  1  0.50000000  0.67161956  0.75000000  1
  Y  Y2  1  0.50000000  0.32838044  0.25000000  1
  Y  Y3  1  0.00000000  0.17161956  0.75000000  1
  Te  Te4  1  0.50000000  0.57562303  0.25000000  1
  Te  Te5  1  0.00000000  0.92437697  0.75000000  1
  Te  Te6  1  0.50000000  0.92438012  0.25000000  1
  Te  Te7  1  0.00000000  0.57561988  0.75000000  1
  Te  Te8  1  0.00000000  0.70681962  0.25000000  1
  Te  Te9  1  0.50000000  0.79318038  0.75000000  1
  Te  Te10  1  0.00000000  0.07562303  0.25000000  1
  Te  Te11  1  0.50000000  0.42437697  0.75000000  1
  Te  Te12  1  0.00000000  0.42438012  0.25000000  1
  Te  Te13  1  0.50000000  0.07561988  0.75000000  1
  Te  Te14  1  0.50000000  0.20681962  0.25000000  1
  Te  Te15  1  0.00000000  0.29318038  0.75000000  1
