# generated using pymatgen
data_TiPN3
_symmetry_space_group_name_H-M   'P 1'
_cell_length_a   9.34858581
_cell_length_b   8.65236370
_cell_length_c   4.96098461
_cell_angle_alpha   90.00000000
_cell_angle_beta   101.68153311
_cell_angle_gamma   90.00000000
_symmetry_Int_Tables_number   1
_chemical_formula_structural   TiPN3
_chemical_formula_sum   'Ti8 P8 N24'
_cell_volume   392.96968745
_cell_formula_units_Z   8
loop_
 _symmetry_equiv_pos_site_id
 _symmetry_equiv_pos_as_xyz
  1  'x, y, z'
loop_
 _atom_site_type_symbol
 _atom_site_label
 _atom_site_symmetry_multiplicity
 _atom_site_fract_x
 _atom_site_fract_y
 _atom_site_fract_z
 _atom_site_occupancy
  Ti  Ti0  1  0.00000000  0.28460766  0.75000000  1
  Ti  Ti1  1  0.00000000  0.10359602  0.25000000  1
  Ti  Ti2  1  0.00000000  0.71539234  0.25000000  1
  Ti  Ti3  1  0.00000000  0.89640398  0.75000000  1
  Ti  Ti4  1  0.50000000  0.78460766  0.75000000  1
  Ti  Ti5  1  0.50000000  0.60359602  0.25000000  1
  Ti  Ti6  1  0.50000000  0.21539234  0.25000000  1
  Ti  Ti7  1  0.50000000  0.39640398  0.75000000  1
  P  P8  1  0.20039475  0.58685976  0.79357806  1
  P  P9  1  0.20039475  0.41314024  0.29357806  1
  P  P10  1  0.79960525  0.41314024  0.20642194  1
  P  P11  1  0.79960525  0.58685976  0.70642194  1
  P  P12  1  0.70039475  0.08685976  0.79357806  1
  P  P13  1  0.70039475  0.91314024  0.29357806  1
  P  P14  1  0.29960525  0.91314024  0.20642194  1
  P  P15  1  0.29960525  0.08685976  0.70642194  1
  N  N16  1  0.14594299  0.56417498  0.09105142  1
  N  N17  1  0.37969089  0.59516902  0.86073910  1
  N  N18  1  0.62030911  0.40483098  0.13926090  1
  N  N19  1  0.14594299  0.43582502  0.59105142  1
  N  N20  1  0.12005876  0.26612832  0.13140263  1
  N  N21  1  0.87994124  0.73387168  0.86859737  1
  N  N22  1  0.87994124  0.26612832  0.36859737  1
  N  N23  1  0.85405701  0.43582502  0.90894858  1
  N  N24  1  0.62030911  0.59516902  0.63926090  1
  N  N25  1  0.12005876  0.73387168  0.63140263  1
  N  N26  1  0.37969089  0.40483098  0.36073910  1
  N  N27  1  0.85405701  0.56417498  0.40894858  1
  N  N28  1  0.64594299  0.06417498  0.09105142  1
  N  N29  1  0.87969089  0.09516902  0.86073910  1
  N  N30  1  0.12030911  0.90483098  0.13926090  1
  N  N31  1  0.64594299  0.93582502  0.59105142  1
  N  N32  1  0.62005876  0.76612832  0.13140263  1
  N  N33  1  0.37994124  0.23387168  0.86859737  1
  N  N34  1  0.37994124  0.76612832  0.36859737  1
  N  N35  1  0.35405701  0.93582502  0.90894858  1
  N  N36  1  0.12030911  0.09516902  0.63926090  1
  N  N37  1  0.62005876  0.23387168  0.63140263  1
  N  N38  1  0.87969089  0.90483098  0.36073910  1
  N  N39  1  0.35405701  0.06417498  0.40894858  1
