# generated using pymatgen
data_Rb5Tl11Cd2
_symmetry_space_group_name_H-M   'P 1'
_cell_length_a   13.13162450
_cell_length_b   17.90340518
_cell_length_c   5.62970611
_cell_angle_alpha   90.00000000
_cell_angle_beta   90.00000000
_cell_angle_gamma   90.00000000
_symmetry_Int_Tables_number   1
_chemical_formula_structural   Rb5Tl11Cd2
_chemical_formula_sum   'Rb10 Tl22 Cd4'
_cell_volume   1323.54837698
_cell_formula_units_Z   2
loop_
 _symmetry_equiv_pos_site_id
 _symmetry_equiv_pos_as_xyz
  1  'x, y, z'
loop_
 _atom_site_type_symbol
 _atom_site_label
 _atom_site_symmetry_multiplicity
 _atom_site_fract_x
 _atom_site_fract_y
 _atom_site_fract_z
 _atom_site_occupancy
  Rb  Rb0  1  0.58769031  0.80732351  0.00000000  1
  Rb  Rb1  1  0.30050513  0.80991305  0.50000000  1
  Rb  Rb2  1  0.58769031  0.19267649  0.00000000  1
  Rb  Rb3  1  0.37076301  0.00000000  0.00000000  1
  Rb  Rb4  1  0.30050513  0.19008695  0.50000000  1
  Rb  Rb5  1  0.08769031  0.30732351  0.00000000  1
  Rb  Rb6  1  0.80050513  0.30991305  0.50000000  1
  Rb  Rb7  1  0.08769031  0.69267649  0.00000000  1
  Rb  Rb8  1  0.87076301  0.50000000  0.00000000  1
  Rb  Rb9  1  0.80050513  0.69008695  0.50000000  1
  Tl  Tl10  1  0.75659993  0.89696299  0.50000000  1
  Tl  Tl11  1  0.51054984  0.65839387  0.50000000  1
  Tl  Tl12  1  0.71519603  0.00000000  0.00000000  1
  Tl  Tl13  1  0.37040021  0.65995464  0.00000000  1
  Tl  Tl14  1  0.75659993  0.10303701  0.50000000  1
  Tl  Tl15  1  0.56257723  0.00000000  0.50000000  1
  Tl  Tl16  1  0.11761512  0.90134645  0.00000000  1
  Tl  Tl17  1  0.17010644  0.00000000  0.50000000  1
  Tl  Tl18  1  0.51054984  0.34160613  0.50000000  1
  Tl  Tl19  1  0.37040021  0.34004536  0.00000000  1
  Tl  Tl20  1  0.11761512  0.09865355  0.00000000  1
  Tl  Tl21  1  0.25659993  0.39696299  0.50000000  1
  Tl  Tl22  1  0.01054984  0.15839387  0.50000000  1
  Tl  Tl23  1  0.21519603  0.50000000  0.00000000  1
  Tl  Tl24  1  0.87040021  0.15995464  0.00000000  1
  Tl  Tl25  1  0.25659993  0.60303701  0.50000000  1
  Tl  Tl26  1  0.06257723  0.50000000  0.50000000  1
  Tl  Tl27  1  0.61761512  0.40134645  0.00000000  1
  Tl  Tl28  1  0.67010644  0.50000000  0.50000000  1
  Tl  Tl29  1  0.01054984  0.84160613  0.50000000  1
  Tl  Tl30  1  0.87040021  0.84004536  0.00000000  1
  Tl  Tl31  1  0.61761512  0.59865355  0.00000000  1
  Cd  Cd32  1  0.93986811  0.00000000  0.74945879  1
  Cd  Cd33  1  0.93986811  0.00000000  0.25054121  1
  Cd  Cd34  1  0.43986811  0.50000000  0.74945879  1
  Cd  Cd35  1  0.43986811  0.50000000  0.25054121  1
