# generated using pymatgen
data_TiPt3
_symmetry_space_group_name_H-M   'P 1'
_cell_length_a   5.57367994
_cell_length_b   5.57367994
_cell_length_c   4.49078659
_cell_angle_alpha   90.00000000
_cell_angle_beta   90.00000000
_cell_angle_gamma   120.00000000
_symmetry_Int_Tables_number   1
_chemical_formula_structural   TiPt3
_chemical_formula_sum   'Ti2 Pt6'
_cell_volume   120.81951863
_cell_formula_units_Z   2
loop_
 _symmetry_equiv_pos_site_id
 _symmetry_equiv_pos_as_xyz
  1  'x, y, z'
loop_
 _atom_site_type_symbol
 _atom_site_label
 _atom_site_symmetry_multiplicity
 _atom_site_fract_x
 _atom_site_fract_y
 _atom_site_fract_z
 _atom_site_occupancy
  Ti  Ti0  1  0.33333333  0.66666667  0.75000000  1
  Ti  Ti1  1  0.66666667  0.33333333  0.25000000  1
  Pt  Pt2  1  0.16720830  0.33441659  0.25000000  1
  Pt  Pt3  1  0.66558341  0.83279170  0.25000000  1
  Pt  Pt4  1  0.16720830  0.83279170  0.25000000  1
  Pt  Pt5  1  0.83279170  0.66558341  0.75000000  1
  Pt  Pt6  1  0.33441659  0.16720830  0.75000000  1
  Pt  Pt7  1  0.83279170  0.16720830  0.75000000  1
