# generated using pymatgen
data_Nb4Co4Si7
_symmetry_space_group_name_H-M   'P 1'
_cell_length_a   12.51014134
_cell_length_b   12.51014134
_cell_length_c   4.95607239
_cell_angle_alpha   90.00000000
_cell_angle_beta   90.00000000
_cell_angle_gamma   90.00000000
_symmetry_Int_Tables_number   1
_chemical_formula_structural   Nb4Co4Si7
_chemical_formula_sum   'Nb16 Co16 Si28'
_cell_volume   775.64335144
_cell_formula_units_Z   4
loop_
 _symmetry_equiv_pos_site_id
 _symmetry_equiv_pos_as_xyz
  1  'x, y, z'
loop_
 _atom_site_type_symbol
 _atom_site_label
 _atom_site_symmetry_multiplicity
 _atom_site_fract_x
 _atom_site_fract_y
 _atom_site_fract_z
 _atom_site_occupancy
  Nb  Nb0  1  0.80815694  0.00000000  0.50000000  1
  Nb  Nb1  1  0.19184306  0.00000000  0.50000000  1
  Nb  Nb2  1  0.50000000  0.69184306  0.00000000  1
  Nb  Nb3  1  0.50000000  0.30815694  0.00000000  1
  Nb  Nb4  1  0.13414245  0.13414245  0.00000000  1
  Nb  Nb5  1  0.36585755  0.36585755  0.50000000  1
  Nb  Nb6  1  0.63414245  0.36585755  0.50000000  1
  Nb  Nb7  1  0.86585755  0.13414245  0.00000000  1
  Nb  Nb8  1  0.30815694  0.50000000  0.00000000  1
  Nb  Nb9  1  0.69184306  0.50000000  0.00000000  1
  Nb  Nb10  1  0.00000000  0.19184306  0.50000000  1
  Nb  Nb11  1  0.00000000  0.80815694  0.50000000  1
  Nb  Nb12  1  0.63414245  0.63414245  0.50000000  1
  Nb  Nb13  1  0.86585755  0.86585755  0.00000000  1
  Nb  Nb14  1  0.13414246  0.86585755  0.00000000  1
  Nb  Nb15  1  0.36585754  0.63414245  0.50000000  1
  Co  Co16  1  0.64850583  0.14850583  0.75000000  1
  Co  Co17  1  0.35149417  0.85149417  0.75000000  1
  Co  Co18  1  0.64850583  0.85149417  0.25000000  1
  Co  Co19  1  0.35149417  0.14850583  0.25000000  1
  Co  Co20  1  0.35149417  0.85149417  0.25000000  1
  Co  Co21  1  0.64850583  0.14850583  0.25000000  1
  Co  Co22  1  0.35149417  0.14850583  0.75000000  1
  Co  Co23  1  0.64850583  0.85149417  0.75000000  1
  Co  Co24  1  0.14850583  0.64850583  0.25000000  1
  Co  Co25  1  0.85149417  0.35149417  0.25000000  1
  Co  Co26  1  0.14850583  0.35149417  0.75000000  1
  Co  Co27  1  0.85149417  0.64850583  0.75000000  1
  Co  Co28  1  0.85149417  0.35149417  0.75000000  1
  Co  Co29  1  0.14850583  0.64850583  0.75000000  1
  Co  Co30  1  0.85149417  0.64850583  0.25000000  1
  Co  Co31  1  0.14850583  0.35149417  0.25000000  1
  Si  Si32  1  0.29047543  0.29047543  0.00000000  1
  Si  Si33  1  0.20952457  0.20952457  0.50000000  1
  Si  Si34  1  0.79047543  0.20952457  0.50000000  1
  Si  Si35  1  0.70952457  0.29047543  0.00000000  1
  Si  Si36  1  0.59446120  0.00000000  0.50000000  1
  Si  Si37  1  0.40553880  0.00000000  0.50000000  1
  Si  Si38  1  0.50000000  0.90553880  0.00000000  1
  Si  Si39  1  0.50000000  0.09446120  0.00000000  1
  Si  Si40  1  0.00000000  0.00000000  0.24941761  1
  Si  Si41  1  0.50000000  0.50000000  0.25058239  1
  Si  Si42  1  0.29974641  0.00000000  0.00000000  1
  Si  Si43  1  0.70025359  0.00000000  0.00000000  1
  Si  Si44  1  0.50000000  0.20025359  0.50000000  1
  Si  Si45  1  0.50000000  0.79974641  0.50000000  1
  Si  Si46  1  0.79047543  0.79047543  0.50000000  1
  Si  Si47  1  0.70952457  0.70952457  0.00000000  1
  Si  Si48  1  0.29047543  0.70952457  0.00000000  1
  Si  Si49  1  0.20952457  0.79047543  0.50000000  1
  Si  Si50  1  0.09446120  0.50000000  0.00000000  1
  Si  Si51  1  0.90553880  0.50000000  0.00000000  1
  Si  Si52  1  0.00000000  0.40553880  0.50000000  1
  Si  Si53  1  0.00000000  0.59446120  0.50000000  1
  Si  Si54  1  0.50000000  0.50000000  0.74941761  1
  Si  Si55  1  0.00000000  0.00000000  0.75058239  1
  Si  Si56  1  0.79974641  0.50000000  0.50000000  1
  Si  Si57  1  0.20025359  0.50000000  0.50000000  1
  Si  Si58  1  0.00000000  0.70025359  0.00000000  1
  Si  Si59  1  0.00000000  0.29974641  0.00000000  1
