# generated using pymatgen
data_VRh
_symmetry_space_group_name_H-M   'P 1'
_cell_length_a   5.74675826
_cell_length_b   6.69927624
_cell_length_c   2.79222287
_cell_angle_alpha   90.00000000
_cell_angle_beta   90.00000000
_cell_angle_gamma   90.00000000
_symmetry_Int_Tables_number   1
_chemical_formula_structural   VRh
_chemical_formula_sum   'V4 Rh4'
_cell_volume   107.49812632
_cell_formula_units_Z   4
loop_
 _symmetry_equiv_pos_site_id
 _symmetry_equiv_pos_as_xyz
  1  'x, y, z'
loop_
 _atom_site_type_symbol
 _atom_site_label
 _atom_site_symmetry_multiplicity
 _atom_site_fract_x
 _atom_site_fract_y
 _atom_site_fract_z
 _atom_site_occupancy
  V  V0  1  0.79627939  0.50000000  0.00000000  1
  V  V1  1  0.20372061  0.50000000  0.00000000  1
  V  V2  1  0.29627939  0.00000000  0.00000000  1
  V  V3  1  0.70372061  0.00000000  0.00000000  1
  Rh  Rh4  1  0.00000000  0.21594602  0.50000000  1
  Rh  Rh5  1  0.00000000  0.78405398  0.50000000  1
  Rh  Rh6  1  0.50000000  0.71594602  0.50000000  1
  Rh  Rh7  1  0.50000000  0.28405398  0.50000000  1
